1AZ8


 32 33  0  0  0  0  0  0  0  0999 V2000
   29.4705   11.5334   18.0347 C   0  0  0  0  0  0  0  0  0  0  0  0
   28.5799   15.6644   17.9272 C   0  0  0  0  0  0  0  0  0  0  0  0
   28.3195   14.9854   19.1114 C   0  0  0  0  0  0  0  0  0  0  0  0
   28.6010   13.6210   19.1820 C   0  0  0  0  0  0  0  0  0  0  0  0
   29.1419   12.9545   18.0660 C   0  0  0  0  0  0  0  0  0  0  0  0
   29.4320   13.6512   16.9099 C   0  0  0  0  0  0  0  0  0  0  0  0
   29.1594   14.9997   16.8420 C   0  0  0  0  0  0  0  0  0  0  0  0
   30.1594   15.2114   14.5921 N   0  0  0  0  0  0  0  0  0  0  0  0
   28.9714   16.9268   15.4280 N   0  0  0  0  0  0  0  0  0  0  0  0
   29.4614   15.7294   15.5756 C   0  0  0  0  0  0  0  0  0  0  0  0
   30.5397   14.3077   14.6810 H   0  0  0  0  0  0  0  0  0  0  0  0
   30.3028   15.7266   13.7655 H   0  0  0  0  0  0  0  0  0  0  0  0
   28.4445   17.3358   16.1521 H   0  0  0  0  0  0  0  0  0  0  0  0
   30.9809   11.4371   17.9412 C   0  0  0  0  0  0  0  0  0  0  0  0
   31.5469   10.1242   18.4394 C   0  0  0  0  0  0  0  0  0  0  0  0
   33.9779    9.9731   18.9804 C   0  0  0  0  0  0  0  0  0  0  0  0
   32.9916   10.0412   18.0025 C   0  0  0  0  0  0  0  0  0  0  0  0
   35.3159    9.8391   18.6016 C   0  0  0  0  0  0  0  0  0  0  0  0
   35.6988    9.8362   17.2452 C   0  0  0  0  0  0  0  0  0  0  0  0
   34.6980    9.9367   16.2640 C   0  0  0  0  0  0  0  0  0  0  0  0
   33.3550   10.0140   16.6449 C   0  0  0  0  0  0  0  0  0  0  0  0
   37.6935    8.7356   16.2021 N   0  0  0  0  0  0  0  0  0  0  0  0
   38.0006   10.7223   17.2600 N   0  0  0  0  0  0  0  0  0  0  0  0
   37.1783    9.7616   16.8838 C   0  0  0  0  0  0  0  0  0  0  0  0
   37.1108    8.0000   15.9047 H   0  0  0  0  0  0  0  0  0  0  0  0
   38.6562    8.7148   15.9970 H   0  0  0  0  0  0  0  0  0  0  0  0
   37.6571   11.4949   17.7643 H   0  0  0  0  0  0  0  0  0  0  0  0
   28.8665   10.7019   19.1923 C   0  0  0  0  0  0  0  0  0  0  0  0
   27.3819    8.8806   18.6599 O   0  0  0  0  0  0  0  0  0  0  0  0
   27.4822   10.0748   18.9432 C   0  0  0  0  0  0  0  0  0  0  0  0
   26.3724   10.8781   19.0995 O   0  0  0  0  0  0  0  0  0  0  0  0
   25.3383   10.6818   20.0582 C   0  0  0  0  0  0  0  0  0  0  0  0
  2  3  2  0  0  0
  2  7  1  0  0  0
  3  4  1  0  0  0
  4  5  2  0  0  0
  5  6  1  0  0  0
  5  1  1  0  0  0
 31 32  1  0  0  0
  6  7  2  0  0  0
  7 10  1  0  0  0
 16 18  2  0  0  0
 14 15  1  0  0  0
 14  1  1  0  0  0
  1 28  1  0  0  0
 15 17  1  0  0  0
 16 17  1  0  0  0
 17 21  2  0  0  0
 18 19  1  0  0  0
 28 30  1  0  0  0
 19 24  1  0  0  0
 19 20  2  0  0  0
 22 24  1  0  0  0
 23 24  2  0  0  0
 20 21  1  0  0  0
  8 10  1  0  0  0
  9 10  2  0  0  0
 29 30  2  0  0  0
 31 30  1  0  0  0
 22 25  1  0  0  0
 22 26  1  0  0  0
 23 27  1  0  0  0
  8 11  1  0  0  0
  8 12  1  0  0  0
  9 13  1  0  0  0
M  END
> <minimizedAffinity>
-8.16294

$$$$
1AZ8


 32 33  0  0  0  0  0  0  0  0999 V2000
   28.6676   11.4020   17.9212 C   0  0  0  0  0  0  0  0  0  0  0  0
   28.3535   15.6176   17.9303 C   0  0  0  0  0  0  0  0  0  0  0  0
   27.8961   14.9405   19.0544 C   0  0  0  0  0  0  0  0  0  0  0  0
   27.9842   13.5487   19.0852 C   0  0  0  0  0  0  0  0  0  0  0  0
   28.5313   12.8529   17.9903 C   0  0  0  0  0  0  0  0  0  0  0  0
   29.0177   13.5424   16.8975 C   0  0  0  0  0  0  0  0  0  0  0  0
   28.9361   14.9172   16.8694 C   0  0  0  0  0  0  0  0  0  0  0  0
   30.2632   15.1017   14.7930 N   0  0  0  0  0  0  0  0  0  0  0  0
   29.0326   16.8584   15.4656 N   0  0  0  0  0  0  0  0  0  0  0  0
   29.4488   15.6415   15.6696 C   0  0  0  0  0  0  0  0  0  0  0  0
   30.5910   14.1830   14.9262 H   0  0  0  0  0  0  0  0  0  0  0  0
   30.5462   15.6156   14.0023 H   0  0  0  0  0  0  0  0  0  0  0  0
   28.4213   17.2839   16.1095 H   0  0  0  0  0  0  0  0  0  0  0  0
   27.2794   10.8450   17.6722 C   0  0  0  0  0  0  0  0  0  0  0  0
   27.2647    9.5646   16.8642 C   0  0  0  0  0  0  0  0  0  0  0  0
   25.0861    9.1521   15.7204 C   0  0  0  0  0  0  0  0  0  0  0  0
   25.8539    9.0220   16.8725 C   0  0  0  0  0  0  0  0  0  0  0  0
   23.7995    8.6088   15.6847 C   0  0  0  0  0  0  0  0  0  0  0  0
   23.2335    7.9855   16.8150 C   0  0  0  0  0  0  0  0  0  0  0  0
   24.0054    7.8860   17.9849 C   0  0  0  0  0  0  0  0  0  0  0  0
   25.3131    8.3805   18.0002 C   0  0  0  0  0  0  0  0  0  0  0  0
   21.2482    6.7694   17.7412 N   0  0  0  0  0  0  0  0  0  0  0  0
   21.0613    7.7065   15.6804 N   0  0  0  0  0  0  0  0  0  0  0  0
   21.7987    7.4735   16.7492 C   0  0  0  0  0  0  0  0  0  0  0  0
   21.7678    6.5755   18.5546 H   0  0  0  0  0  0  0  0  0  0  0  0
   20.3226    6.4440   17.6591 H   0  0  0  0  0  0  0  0  0  0  0  0
   21.4332    8.2222   14.9287 H   0  0  0  0  0  0  0  0  0  0  0  0
   29.7286   10.8970   16.9133 C   0  0  0  0  0  0  0  0  0  0  0  0
   30.8545    8.8792   17.5953 O   0  0  0  0  0  0  0  0  0  0  0  0
   30.9137   10.1052   17.4966 C   0  0  0  0  0  0  0  0  0  0  0  0
   32.0471   10.8067   17.8494 O   0  0  0  0  0  0  0  0  0  0  0  0
   33.2837   10.2294   18.2550 C   0  0  0  0  0  0  0  0  0  0  0  0
  2  3  2  0  0  0
  2  7  1  0  0  0
  3  4  1  0  0  0
  4  5  2  0  0  0
  5  6  1  0  0  0
  5  1  1  0  0  0
 31 32  1  0  0  0
  6  7  2  0  0  0
  7 10  1  0  0  0
 16 18  2  0  0  0
 14 15  1  0  0  0
 14  1  1  0  0  0
  1 28  1  0  0  0
 15 17  1  0  0  0
 16 17  1  0  0  0
 17 21  2  0  0  0
 18 19  1  0  0  0
 28 30  1  0  0  0
 19 24  1  0  0  0
 19 20  2  0  0  0
 22 24  1  0  0  0
 23 24  2  0  0  0
 20 21  1  0  0  0
  8 10  1  0  0  0
  9 10  2  0  0  0
 29 30  2  0  0  0
 31 30  1  0  0  0
 22 25  1  0  0  0
 22 26  1  0  0  0
 23 27  1  0  0  0
  8 11  1  0  0  0
  8 12  1  0  0  0
  9 13  1  0  0  0
M  END
> <minimizedAffinity>
-7.78077

$$$$
1AZ8


 32 33  0  0  0  0  0  0  0  0999 V2000
   27.6144    9.9695   19.5690 C   0  0  0  0  0  0  0  0  0  0  0  0
   24.5759    8.7522   16.8939 C   0  0  0  0  0  0  0  0  0  0  0  0
   25.6785    9.4037   16.3545 C   0  0  0  0  0  0  0  0  0  0  0  0
   26.7001    9.8197   17.2085 C   0  0  0  0  0  0  0  0  0  0  0  0
   26.6050    9.5758   18.5918 C   0  0  0  0  0  0  0  0  0  0  0  0
   25.5219    8.8922   19.1074 C   0  0  0  0  0  0  0  0  0  0  0  0
   24.5159    8.4762   18.2635 C   0  0  0  0  0  0  0  0  0  0  0  0
   23.0870    7.7161   20.1309 N   0  0  0  0  0  0  0  0  0  0  0  0
   22.5157    7.1759   18.0250 N   0  0  0  0  0  0  0  0  0  0  0  0
   23.3441    7.7573   18.8443 C   0  0  0  0  0  0  0  0  0  0  0  0
   23.6990    8.1486   20.7693 H   0  0  0  0  0  0  0  0  0  0  0  0
   22.2821    7.2526   20.4574 H   0  0  0  0  0  0  0  0  0  0  0  0
   22.6879    7.1939   17.0559 H   0  0  0  0  0  0  0  0  0  0  0  0
   28.7989   10.4978   18.7835 C   0  0  0  0  0  0  0  0  0  0  0  0
   29.5139   11.6542   19.4497 C   0  0  0  0  0  0  0  0  0  0  0  0
   29.6509   12.9172   17.3023 C   0  0  0  0  0  0  0  0  0  0  0  0
   29.2512   12.8995   18.6341 C   0  0  0  0  0  0  0  0  0  0  0  0
   29.3688   14.0348   16.5129 C   0  0  0  0  0  0  0  0  0  0  0  0
   28.7434   15.1767   17.0527 C   0  0  0  0  0  0  0  0  0  0  0  0
   28.3709   15.1620   18.4075 C   0  0  0  0  0  0  0  0  0  0  0  0
   28.6036   14.0208   19.1810 C   0  0  0  0  0  0  0  0  0  0  0  0
   29.3624   16.7252   15.1826 N   0  0  0  0  0  0  0  0  0  0  0  0
   27.4855   17.1874   16.3758 N   0  0  0  0  0  0  0  0  0  0  0  0
   28.5233   16.3995   16.1688 C   0  0  0  0  0  0  0  0  0  0  0  0
   30.1480   16.1613   14.9984 H   0  0  0  0  0  0  0  0  0  0  0  0
   29.1954   17.5293   14.6397 H   0  0  0  0  0  0  0  0  0  0  0  0
   26.8450   16.9794   17.0939 H   0  0  0  0  0  0  0  0  0  0  0  0
   27.1129   10.9417   20.6642 C   0  0  0  0  0  0  0  0  0  0  0  0
   27.2061    9.4108   22.5222 O   0  0  0  0  0  0  0  0  0  0  0  0
   27.4196   10.5561   22.1233 C   0  0  0  0  0  0  0  0  0  0  0  0
   27.9836   11.5142   22.9389 O   0  0  0  0  0  0  0  0  0  0  0  0
   28.4115   11.3092   24.2813 C   0  0  0  0  0  0  0  0  0  0  0  0
  2  3  2  0  0  0
  2  7  1  0  0  0
  3  4  1  0  0  0
  4  5  2  0  0  0
  5  6  1  0  0  0
  5  1  1  0  0  0
 31 32  1  0  0  0
  6  7  2  0  0  0
  7 10  1  0  0  0
 16 18  2  0  0  0
 14 15  1  0  0  0
 14  1  1  0  0  0
  1 28  1  0  0  0
 15 17  1  0  0  0
 16 17  1  0  0  0
 17 21  2  0  0  0
 18 19  1  0  0  0
 28 30  1  0  0  0
 19 24  1  0  0  0
 19 20  2  0  0  0
 22 24  1  0  0  0
 23 24  2  0  0  0
 20 21  1  0  0  0
  8 10  1  0  0  0
  9 10  2  0  0  0
 29 30  2  0  0  0
 31 30  1  0  0  0
 22 25  1  0  0  0
 22 26  1  0  0  0
 23 27  1  0  0  0
  8 11  1  0  0  0
  8 12  1  0  0  0
  9 13  1  0  0  0
M  END
> <minimizedAffinity>
-7.55865

$$$$
1AZ8


 32 33  0  0  0  0  0  0  0  0999 V2000
   29.8003   11.2177   17.6808 C   0  0  0  0  0  0  0  0  0  0  0  0
   28.6542   15.2626   18.1229 C   0  0  0  0  0  0  0  0  0  0  0  0
   28.5888   14.4532   19.2507 C   0  0  0  0  0  0  0  0  0  0  0  0
   28.9593   13.1128   19.1408 C   0  0  0  0  0  0  0  0  0  0  0  0
   29.3927   12.6008   17.9030 C   0  0  0  0  0  0  0  0  0  0  0  0
   29.4900   13.4272   16.8012 C   0  0  0  0  0  0  0  0  0  0  0  0
   29.1297   14.7522   16.9110 C   0  0  0  0  0  0  0  0  0  0  0  0
   28.5175   16.7190   15.5459 N   0  0  0  0  0  0  0  0  0  0  0  0
   30.0774   15.2950   14.7767 N   0  0  0  0  0  0  0  0  0  0  0  0
   29.2226   15.6230   15.7026 C   0  0  0  0  0  0  0  0  0  0  0  0
   27.8651   16.9871   16.2328 H   0  0  0  0  0  0  0  0  0  0  0  0
   28.6410   17.2730   14.7415 H   0  0  0  0  0  0  0  0  0  0  0  0
   30.6174   14.4774   14.8725 H   0  0  0  0  0  0  0  0  0  0  0  0
   31.2794   11.1414   18.0057 C   0  0  0  0  0  0  0  0  0  0  0  0
   31.9389    9.8480   17.5763 C   0  0  0  0  0  0  0  0  0  0  0  0
   34.1495   10.6514   18.4088 C   0  0  0  0  0  0  0  0  0  0  0  0
   33.1805    9.6540   18.4165 C   0  0  0  0  0  0  0  0  0  0  0  0
   35.2792   10.5210   19.2203 C   0  0  0  0  0  0  0  0  0  0  0  0
   35.4934    9.3677   20.0017 C   0  0  0  0  0  0  0  0  0  0  0  0
   34.5237    8.3509   19.9794 C   0  0  0  0  0  0  0  0  0  0  0  0
   33.3671    8.5089   19.2099 C   0  0  0  0  0  0  0  0  0  0  0  0
   37.2262   10.2255   21.5954 N   0  0  0  0  0  0  0  0  0  0  0  0
   37.4958    8.1355   20.7472 N   0  0  0  0  0  0  0  0  0  0  0  0
   36.7774    9.2401   20.8141 C   0  0  0  0  0  0  0  0  0  0  0  0
   36.7171   11.0648   21.6705 H   0  0  0  0  0  0  0  0  0  0  0  0
   38.0662   10.1128   22.0963 H   0  0  0  0  0  0  0  0  0  0  0  0
   37.1966    7.3873   20.1816 H   0  0  0  0  0  0  0  0  0  0  0  0
   28.9465   10.1621   18.4245 C   0  0  0  0  0  0  0  0  0  0  0  0
   28.0460    8.6888   16.7443 O   0  0  0  0  0  0  0  0  0  0  0  0
   27.8009    9.5130   17.6259 C   0  0  0  0  0  0  0  0  0  0  0  0
   26.5070    9.8459   17.9673 O   0  0  0  0  0  0  0  0  0  0  0  0
   26.1318   10.7619   18.9905 C   0  0  0  0  0  0  0  0  0  0  0  0
  2  3  2  0  0  0
  2  7  1  0  0  0
  3  4  1  0  0  0
  4  5  2  0  0  0
  5  6  1  0  0  0
  5  1  1  0  0  0
 31 32  1  0  0  0
  6  7  2  0  0  0
  7 10  1  0  0  0
 16 18  2  0  0  0
 14 15  1  0  0  0
 14  1  1  0  0  0
  1 28  1  0  0  0
 15 17  1  0  0  0
 16 17  1  0  0  0
 17 21  2  0  0  0
 18 19  1  0  0  0
 28 30  1  0  0  0
 19 24  1  0  0  0
 19 20  2  0  0  0
 22 24  1  0  0  0
 23 24  2  0  0  0
 20 21  1  0  0  0
  8 10  1  0  0  0
  9 10  2  0  0  0
 29 30  2  0  0  0
 31 30  1  0  0  0
 22 25  1  0  0  0
 22 26  1  0  0  0
 23 27  1  0  0  0
  8 11  1  0  0  0
  8 12  1  0  0  0
  9 13  1  0  0  0
M  END
> <minimizedAffinity>
-7.43489

$$$$
1AZ8


 32 33  0  0  0  0  0  0  0  0999 V2000
   29.2169   11.4256   17.7066 C   0  0  0  0  0  0  0  0  0  0  0  0
   28.6905   15.6136   17.9378 C   0  0  0  0  0  0  0  0  0  0  0  0
   28.4432   14.8742   19.0882 C   0  0  0  0  0  0  0  0  0  0  0  0
   28.6066   13.4895   19.0476 C   0  0  0  0  0  0  0  0  0  0  0  0
   29.0179   12.8632   17.8556 C   0  0  0  0  0  0  0  0  0  0  0  0
   29.2978   13.6157   16.7324 C   0  0  0  0  0  0  0  0  0  0  0  0
   29.1421   14.9837   16.7740 C   0  0  0  0  0  0  0  0  0  0  0  0
   29.0118   17.0068   15.3610 N   0  0  0  0  0  0  0  0  0  0  0  0
   30.1678   15.2269   14.6207 N   0  0  0  0  0  0  0  0  0  0  0  0
   29.4301   15.7759   15.5425 C   0  0  0  0  0  0  0  0  0  0  0  0
   28.4529   17.4426   16.0443 H   0  0  0  0  0  0  0  0  0  0  0  0
   29.2571   17.4943   14.5415 H   0  0  0  0  0  0  0  0  0  0  0  0
   30.4931   14.3047   14.7350 H   0  0  0  0  0  0  0  0  0  0  0  0
   27.8596   10.8279   17.3909 C   0  0  0  0  0  0  0  0  0  0  0  0
   27.5543    9.5554   18.1523 C   0  0  0  0  0  0  0  0  0  0  0  0
   26.9904   10.8057   20.2365 C   0  0  0  0  0  0  0  0  0  0  0  0
   27.7665    9.8278   19.6239 C   0  0  0  0  0  0  0  0  0  0  0  0
   27.1286   11.0366   21.6074 C   0  0  0  0  0  0  0  0  0  0  0  0
   28.0856   10.3443   22.3764 C   0  0  0  0  0  0  0  0  0  0  0  0
   28.8871    9.3797   21.7425 C   0  0  0  0  0  0  0  0  0  0  0  0
   28.7080    9.1107   20.3823 C   0  0  0  0  0  0  0  0  0  0  0  0
   27.5700   11.6763   24.4351 N   0  0  0  0  0  0  0  0  0  0  0  0
   29.0946   10.0004   24.6006 N   0  0  0  0  0  0  0  0  0  0  0  0
   28.2487   10.6841   23.8538 C   0  0  0  0  0  0  0  0  0  0  0  0
   26.9299   12.2087   23.9097 H   0  0  0  0  0  0  0  0  0  0  0  0
   27.7098   11.8754   25.3890 H   0  0  0  0  0  0  0  0  0  0  0  0
   29.6127    9.2616   24.2070 H   0  0  0  0  0  0  0  0  0  0  0  0
   30.3210   11.0243   16.6985 C   0  0  0  0  0  0  0  0  0  0  0  0
   31.5272    9.8588   18.4281 O   0  0  0  0  0  0  0  0  0  0  0  0
   31.5416   10.2800   17.2710 C   0  0  0  0  0  0  0  0  0  0  0  0
   32.6146   10.0604   16.4332 O   0  0  0  0  0  0  0  0  0  0  0  0
   33.9724    9.9386   16.8436 C   0  0  0  0  0  0  0  0  0  0  0  0
  2  3  2  0  0  0
  2  7  1  0  0  0
  3  4  1  0  0  0
  4  5  2  0  0  0
  5  6  1  0  0  0
  5  1  1  0  0  0
 31 32  1  0  0  0
  6  7  2  0  0  0
  7 10  1  0  0  0
 16 18  2  0  0  0
 14 15  1  0  0  0
 14  1  1  0  0  0
  1 28  1  0  0  0
 15 17  1  0  0  0
 16 17  1  0  0  0
 17 21  2  0  0  0
 18 19  1  0  0  0
 28 30  1  0  0  0
 19 24  1  0  0  0
 19 20  2  0  0  0
 22 24  1  0  0  0
 23 24  2  0  0  0
 20 21  1  0  0  0
  8 10  1  0  0  0
  9 10  2  0  0  0
 29 30  2  0  0  0
 31 30  1  0  0  0
 22 25  1  0  0  0
 22 26  1  0  0  0
 23 27  1  0  0  0
  8 11  1  0  0  0
  8 12  1  0  0  0
  9 13  1  0  0  0
M  END
> <minimizedAffinity>
-7.38041

$$$$
1AZ8


 32 33  0  0  0  0  0  0  0  0999 V2000
   27.5136   11.7972   20.0013 C   0  0  0  0  0  0  0  0  0  0  0  0
   29.5100   13.4933   16.6835 C   0  0  0  0  0  0  0  0  0  0  0  0
   29.5566   12.1110   16.8188 C   0  0  0  0  0  0  0  0  0  0  0  0
   28.9089   11.5176   17.9023 C   0  0  0  0  0  0  0  0  0  0  0  0
   28.2208   12.3163   18.8355 C   0  0  0  0  0  0  0  0  0  0  0  0
   28.1502   13.6846   18.6655 C   0  0  0  0  0  0  0  0  0  0  0  0
   28.7849   14.2702   17.5924 C   0  0  0  0  0  0  0  0  0  0  0  0
   28.2704   16.3468   16.3554 N   0  0  0  0  0  0  0  0  0  0  0  0
   29.0739   16.4904   18.4498 N   0  0  0  0  0  0  0  0  0  0  0  0
   28.7136   15.7530   17.4390 C   0  0  0  0  0  0  0  0  0  0  0  0
   27.9923   15.8098   15.5786 H   0  0  0  0  0  0  0  0  0  0  0  0
   28.2162   17.3292   16.3196 H   0  0  0  0  0  0  0  0  0  0  0  0
   29.4094   16.0673   19.2730 H   0  0  0  0  0  0  0  0  0  0  0  0
   26.0980   11.4916   19.5521 C   0  0  0  0  0  0  0  0  0  0  0  0
   25.9605   10.1910   18.7892 C   0  0  0  0  0  0  0  0  0  0  0  0
   24.3221    8.3095   18.7634 C   0  0  0  0  0  0  0  0  0  0  0  0
   24.8994    9.3580   19.4712 C   0  0  0  0  0  0  0  0  0  0  0  0
   23.3802    7.4905   19.3909 C   0  0  0  0  0  0  0  0  0  0  0  0
   22.9507    7.7415   20.7096 C   0  0  0  0  0  0  0  0  0  0  0  0
   23.5169    8.8222   21.4068 C   0  0  0  0  0  0  0  0  0  0  0  0
   24.5004    9.6060   20.7960 C   0  0  0  0  0  0  0  0  0  0  0  0
   21.7203    5.5777   20.9965 N   0  0  0  0  0  0  0  0  0  0  0  0
   21.0219    7.3719   22.2018 N   0  0  0  0  0  0  0  0  0  0  0  0
   21.8666    6.8635   21.3251 C   0  0  0  0  0  0  0  0  0  0  0  0
   22.3318    5.1633   20.3456 H   0  0  0  0  0  0  0  0  0  0  0  0
   21.0010    5.0439   21.4050 H   0  0  0  0  0  0  0  0  0  0  0  0
   21.0986    8.3164   22.4688 H   0  0  0  0  0  0  0  0  0  0  0  0
   28.2106   10.6088   20.7072 C   0  0  0  0  0  0  0  0  0  0  0  0
   27.6176    9.3922   22.7004 O   0  0  0  0  0  0  0  0  0  0  0  0
   27.9734   10.4699   22.2224 C   0  0  0  0  0  0  0  0  0  0  0  0
   28.2224   11.5685   23.0178 O   0  0  0  0  0  0  0  0  0  0  0  0
   28.7501   11.5295   24.3395 C   0  0  0  0  0  0  0  0  0  0  0  0
  2  3  2  0  0  0
  2  7  1  0  0  0
  3  4  1  0  0  0
  4  5  2  0  0  0
  5  6  1  0  0  0
  5  1  1  0  0  0
 31 32  1  0  0  0
  6  7  2  0  0  0
  7 10  1  0  0  0
 16 18  2  0  0  0
 14 15  1  0  0  0
 14  1  1  0  0  0
  1 28  1  0  0  0
 15 17  1  0  0  0
 16 17  1  0  0  0
 17 21  2  0  0  0
 18 19  1  0  0  0
 28 30  1  0  0  0
 19 24  1  0  0  0
 19 20  2  0  0  0
 22 24  1  0  0  0
 23 24  2  0  0  0
 20 21  1  0  0  0
  8 10  1  0  0  0
  9 10  2  0  0  0
 29 30  2  0  0  0
 31 30  1  0  0  0
 22 25  1  0  0  0
 22 26  1  0  0  0
 23 27  1  0  0  0
  8 11  1  0  0  0
  8 12  1  0  0  0
  9 13  1  0  0  0
M  END
> <minimizedAffinity>
-7.30513

$$$$
1AZ8


 32 33  0  0  0  0  0  0  0  0999 V2000
   27.3981   11.7214   20.1055 C   0  0  0  0  0  0  0  0  0  0  0  0
   29.3859   13.3356   16.7420 C   0  0  0  0  0  0  0  0  0  0  0  0
   29.3785   11.9525   16.8767 C   0  0  0  0  0  0  0  0  0  0  0  0
   28.7320   11.3856   17.9751 C   0  0  0  0  0  0  0  0  0  0  0  0
   28.0991   12.2115   18.9236 C   0  0  0  0  0  0  0  0  0  0  0  0
   28.0811   13.5817   18.7547 C   0  0  0  0  0  0  0  0  0  0  0  0
   28.7145   14.1413   17.6670 C   0  0  0  0  0  0  0  0  0  0  0  0
   28.2835   16.2370   16.4307 N   0  0  0  0  0  0  0  0  0  0  0  0
   29.0871   16.3480   18.5270 N   0  0  0  0  0  0  0  0  0  0  0  0
   28.7009   15.6258   17.5147 C   0  0  0  0  0  0  0  0  0  0  0  0
   27.9867   15.7118   15.6527 H   0  0  0  0  0  0  0  0  0  0  0  0
   28.2674   17.2208   16.3956 H   0  0  0  0  0  0  0  0  0  0  0  0
   29.4041   15.9116   19.3506 H   0  0  0  0  0  0  0  0  0  0  0  0
   26.1261   11.0581   19.6142 C   0  0  0  0  0  0  0  0  0  0  0  0
   26.1235    9.5505   19.7539 C   0  0  0  0  0  0  0  0  0  0  0  0
   25.2400    9.3764   17.4271 C   0  0  0  0  0  0  0  0  0  0  0  0
   25.1336    8.9898   18.7586 C   0  0  0  0  0  0  0  0  0  0  0  0
   24.3724    8.8285   16.4790 C   0  0  0  0  0  0  0  0  0  0  0  0
   23.3450    7.9382   16.8508 C   0  0  0  0  0  0  0  0  0  0  0  0
   23.2254    7.5771   18.2036 C   0  0  0  0  0  0  0  0  0  0  0  0
   24.1302    8.0831   19.1417 C   0  0  0  0  0  0  0  0  0  0  0  0
   22.7745    6.6417   14.7840 N   0  0  0  0  0  0  0  0  0  0  0  0
   21.1035    7.7641   15.8366 N   0  0  0  0  0  0  0  0  0  0  0  0
   22.3775    7.4245   15.7902 C   0  0  0  0  0  0  0  0  0  0  0  0
   23.7176    6.3675   14.7162 H   0  0  0  0  0  0  0  0  0  0  0  0
   22.1241    6.3387   14.1099 H   0  0  0  0  0  0  0  0  0  0  0  0
   20.7738    8.3401   16.5638 H   0  0  0  0  0  0  0  0  0  0  0  0
   28.2467   10.8222   21.0370 C   0  0  0  0  0  0  0  0  0  0  0  0
   27.2282    9.9956   23.0579 O   0  0  0  0  0  0  0  0  0  0  0  0
   27.9149   10.8768   22.5399 C   0  0  0  0  0  0  0  0  0  0  0  0
   28.4528   11.9067   23.2823 O   0  0  0  0  0  0  0  0  0  0  0  0
   29.1280   11.7631   24.5275 C   0  0  0  0  0  0  0  0  0  0  0  0
  2  3  2  0  0  0
  2  7  1  0  0  0
  3  4  1  0  0  0
  4  5  2  0  0  0
  5  6  1  0  0  0
  5  1  1  0  0  0
 31 32  1  0  0  0
  6  7  2  0  0  0
  7 10  1  0  0  0
 16 18  2  0  0  0
 14 15  1  0  0  0
 14  1  1  0  0  0
  1 28  1  0  0  0
 15 17  1  0  0  0
 16 17  1  0  0  0
 17 21  2  0  0  0
 18 19  1  0  0  0
 28 30  1  0  0  0
 19 24  1  0  0  0
 19 20  2  0  0  0
 22 24  1  0  0  0
 23 24  2  0  0  0
 20 21  1  0  0  0
  8 10  1  0  0  0
  9 10  2  0  0  0
 29 30  2  0  0  0
 31 30  1  0  0  0
 22 25  1  0  0  0
 22 26  1  0  0  0
 23 27  1  0  0  0
  8 11  1  0  0  0
  8 12  1  0  0  0
  9 13  1  0  0  0
M  END
> <minimizedAffinity>
-7.09689

$$$$
1AZ8


 32 33  0  0  0  0  0  0  0  0999 V2000
   29.9574   12.4120   17.9979 C   0  0  0  0  0  0  0  0  0  0  0  0
   26.5261   10.3076   19.2895 C   0  0  0  0  0  0  0  0  0  0  0  0
   26.7151   10.4418   17.9193 C   0  0  0  0  0  0  0  0  0  0  0  0
   27.8368   11.1308   17.4578 C   0  0  0  0  0  0  0  0  0  0  0  0
   28.7562   11.6747   18.3748 C   0  0  0  0  0  0  0  0  0  0  0  0
   28.5754   11.4987   19.7322 C   0  0  0  0  0  0  0  0  0  0  0  0
   27.4708   10.8134   20.1880 C   0  0  0  0  0  0  0  0  0  0  0  0
   26.6772    9.6228   22.2028 N   0  0  0  0  0  0  0  0  0  0  0  0
   27.7842   11.5643   22.4432 N   0  0  0  0  0  0  0  0  0  0  0  0
   27.2837   10.6526   21.6598 C   0  0  0  0  0  0  0  0  0  0  0  0
   26.2910    8.9210   21.6305 H   0  0  0  0  0  0  0  0  0  0  0  0
   26.6086    9.5523   23.1824 H   0  0  0  0  0  0  0  0  0  0  0  0
   28.2436   12.3456   22.0586 H   0  0  0  0  0  0  0  0  0  0  0  0
   30.9073   11.4083   17.3738 C   0  0  0  0  0  0  0  0  0  0  0  0
   31.4585   10.3914   18.3508 C   0  0  0  0  0  0  0  0  0  0  0  0
   33.3464   10.0974   16.7462 C   0  0  0  0  0  0  0  0  0  0  0  0
   32.9339   10.2227   18.0683 C   0  0  0  0  0  0  0  0  0  0  0  0
   34.7092    9.9969   16.4560 C   0  0  0  0  0  0  0  0  0  0  0  0
   35.6772    9.9542   17.4797 C   0  0  0  0  0  0  0  0  0  0  0  0
   35.2486   10.0502   18.8145 C   0  0  0  0  0  0  0  0  0  0  0  0
   33.8890   10.2073   19.0994 C   0  0  0  0  0  0  0  0  0  0  0  0
   37.6501    8.5827   16.7693 N   0  0  0  0  0  0  0  0  0  0  0  0
   37.9712   10.7987   17.1516 N   0  0  0  0  0  0  0  0  0  0  0  0
   37.1463    9.7697   17.1154 C   0  0  0  0  0  0  0  0  0  0  0  0
   37.0651    7.7918   16.7312 H   0  0  0  0  0  0  0  0  0  0  0  0
   38.6067    8.4983   16.5522 H   0  0  0  0  0  0  0  0  0  0  0  0
   37.6360   11.6898   17.4024 H   0  0  0  0  0  0  0  0  0  0  0  0
   29.7038   13.6581   17.1151 C   0  0  0  0  0  0  0  0  0  0  0  0
   28.7792   14.8360   19.0024 O   0  0  0  0  0  0  0  0  0  0  0  0
   29.1101   14.8932   17.8177 C   0  0  0  0  0  0  0  0  0  0  0  0
   29.0142   16.0631   17.0941 O   0  0  0  0  0  0  0  0  0  0  0  0
   28.8907   16.1517   15.6785 C   0  0  0  0  0  0  0  0  0  0  0  0
  2  3  2  0  0  0
  2  7  1  0  0  0
  3  4  1  0  0  0
  4  5  2  0  0  0
  5  6  1  0  0  0
  5  1  1  0  0  0
 31 32  1  0  0  0
  6  7  2  0  0  0
  7 10  1  0  0  0
 16 18  2  0  0  0
 14 15  1  0  0  0
 14  1  1  0  0  0
  1 28  1  0  0  0
 15 17  1  0  0  0
 16 17  1  0  0  0
 17 21  2  0  0  0
 18 19  1  0  0  0
 28 30  1  0  0  0
 19 24  1  0  0  0
 19 20  2  0  0  0
 22 24  1  0  0  0
 23 24  2  0  0  0
 20 21  1  0  0  0
  8 10  1  0  0  0
  9 10  2  0  0  0
 29 30  2  0  0  0
 31 30  1  0  0  0
 22 25  1  0  0  0
 22 26  1  0  0  0
 23 27  1  0  0  0
  8 11  1  0  0  0
  8 12  1  0  0  0
  9 13  1  0  0  0
M  END
> <minimizedAffinity>
-6.89662

$$$$
1AZ8


 32 33  0  0  0  0  0  0  0  0999 V2000
   27.8655    9.7501   19.6351 C   0  0  0  0  0  0  0  0  0  0  0  0
   27.8656    8.0594   15.7606 C   0  0  0  0  0  0  0  0  0  0  0  0
   29.0982    8.2593   16.3704 C   0  0  0  0  0  0  0  0  0  0  0  0
   29.1354    8.8157   17.6490 C   0  0  0  0  0  0  0  0  0  0  0  0
   27.9371    9.1627   18.3016 C   0  0  0  0  0  0  0  0  0  0  0  0
   26.7187    8.9213   17.6987 C   0  0  0  0  0  0  0  0  0  0  0  0
   26.6816    8.3665   16.4384 C   0  0  0  0  0  0  0  0  0  0  0  0
   25.0872    7.0871   15.0501 N   0  0  0  0  0  0  0  0  0  0  0  0
   24.4053    8.9948   16.0240 N   0  0  0  0  0  0  0  0  0  0  0  0
   25.3547    8.1332   15.7965 C   0  0  0  0  0  0  0  0  0  0  0  0
   25.7892    6.4223   14.8644 H   0  0  0  0  0  0  0  0  0  0  0  0
   24.1844    6.9673   14.6759 H   0  0  0  0  0  0  0  0  0  0  0  0
   24.5826    9.7870   16.5809 H   0  0  0  0  0  0  0  0  0  0  0  0
   29.0622   10.6715   19.7705 C   0  0  0  0  0  0  0  0  0  0  0  0
   28.7149   12.0678   20.2416 C   0  0  0  0  0  0  0  0  0  0  0  0
   29.5314   12.5484   17.9335 C   0  0  0  0  0  0  0  0  0  0  0  0
   28.8820   13.0114   19.0726 C   0  0  0  0  0  0  0  0  0  0  0  0
   29.6483   13.3833   16.8195 C   0  0  0  0  0  0  0  0  0  0  0  0
   29.1789   14.7120   16.8446 C   0  0  0  0  0  0  0  0  0  0  0  0
   28.5516   15.1814   18.0111 C   0  0  0  0  0  0  0  0  0  0  0  0
   28.3857   14.3261   19.1045 C   0  0  0  0  0  0  0  0  0  0  0  0
   28.8304   16.8120   15.5229 N   0  0  0  0  0  0  0  0  0  0  0  0
   30.1489   15.1929   14.6284 N   0  0  0  0  0  0  0  0  0  0  0  0
   29.3956   15.6070   15.6292 C   0  0  0  0  0  0  0  0  0  0  0  0
   28.2615   17.1548   16.2496 H   0  0  0  0  0  0  0  0  0  0  0  0
   28.9826   17.3577   14.7178 H   0  0  0  0  0  0  0  0  0  0  0  0
   30.5822   14.3099   14.6710 H   0  0  0  0  0  0  0  0  0  0  0  0
   26.5170   10.4311   19.9728 C   0  0  0  0  0  0  0  0  0  0  0  0
   26.2116    9.5063   22.1765 O   0  0  0  0  0  0  0  0  0  0  0  0
   25.6849    9.7939   21.1012 C   0  0  0  0  0  0  0  0  0  0  0  0
   24.3359    9.6097   20.8828 O   0  0  0  0  0  0  0  0  0  0  0  0
   23.7578    8.5490   20.1293 C   0  0  0  0  0  0  0  0  0  0  0  0
  2  3  2  0  0  0
  2  7  1  0  0  0
  3  4  1  0  0  0
  4  5  2  0  0  0
  5  6  1  0  0  0
  5  1  1  0  0  0
 31 32  1  0  0  0
  6  7  2  0  0  0
  7 10  1  0  0  0
 16 18  2  0  0  0
 14 15  1  0  0  0
 14  1  1  0  0  0
  1 28  1  0  0  0
 15 17  1  0  0  0
 16 17  1  0  0  0
 17 21  2  0  0  0
 18 19  1  0  0  0
 28 30  1  0  0  0
 19 24  1  0  0  0
 19 20  2  0  0  0
 22 24  1  0  0  0
 23 24  2  0  0  0
 20 21  1  0  0  0
  8 10  1  0  0  0
  9 10  2  0  0  0
 29 30  2  0  0  0
 31 30  1  0  0  0
 22 25  1  0  0  0
 22 26  1  0  0  0
 23 27  1  0  0  0
  8 11  1  0  0  0
  8 12  1  0  0  0
  9 13  1  0  0  0
M  END
> <minimizedAffinity>
-6.87940

$$$$
1AZ8


 32 33  0  0  0  0  0  0  0  0999 V2000
   26.3416   10.9705   18.9517 C   0  0  0  0  0  0  0  0  0  0  0  0
   29.5179   13.2591   17.3568 C   0  0  0  0  0  0  0  0  0  0  0  0
   29.3954   11.9453   16.9208 C   0  0  0  0  0  0  0  0  0  0  0  0
   28.3586   11.1610   17.4267 C   0  0  0  0  0  0  0  0  0  0  0  0
   27.4564   11.7036   18.3614 C   0  0  0  0  0  0  0  0  0  0  0  0
   27.5676   13.0224   18.7547 C   0  0  0  0  0  0  0  0  0  0  0  0
   28.5878   13.7986   18.2507 C   0  0  0  0  0  0  0  0  0  0  0  0
   28.5153   15.5930   19.9482 N   0  0  0  0  0  0  0  0  0  0  0  0
   29.0437   16.1138   17.8264 N   0  0  0  0  0  0  0  0  0  0  0  0
   28.7022   15.2156   18.7050 C   0  0  0  0  0  0  0  0  0  0  0  0
   28.2567   14.9315   20.6300 H   0  0  0  0  0  0  0  0  0  0  0  0
   28.6338   16.5377   20.1990 H   0  0  0  0  0  0  0  0  0  0  0  0
   29.1893   15.8541   16.8880 H   0  0  0  0  0  0  0  0  0  0  0  0
   26.2507    9.6481   18.2154 C   0  0  0  0  0  0  0  0  0  0  0  0
   24.8340    9.1628   17.9923 C   0  0  0  0  0  0  0  0  0  0  0  0
   25.8270    8.7593   15.7393 C   0  0  0  0  0  0  0  0  0  0  0  0
   24.6842    8.8117   16.5298 C   0  0  0  0  0  0  0  0  0  0  0  0
   25.7209    8.3823   14.3983 C   0  0  0  0  0  0  0  0  0  0  0  0
   24.4696    8.1148   13.8071 C   0  0  0  0  0  0  0  0  0  0  0  0
   23.3167    8.2004   14.6059 C   0  0  0  0  0  0  0  0  0  0  0  0
   23.4314    8.5230   15.9614 C   0  0  0  0  0  0  0  0  0  0  0  0
   23.2954    7.2831   11.7559 N   0  0  0  0  0  0  0  0  0  0  0  0
   25.4544    7.9591   11.5511 N   0  0  0  0  0  0  0  0  0  0  0  0
   24.3987    7.7787   12.3215 C   0  0  0  0  0  0  0  0  0  0  0  0
   22.4878    7.1347   12.2990 H   0  0  0  0  0  0  0  0  0  0  0  0
   23.2896    7.0660   10.7956 H   0  0  0  0  0  0  0  0  0  0  0  0
   26.2859    8.3227   11.9327 H   0  0  0  0  0  0  0  0  0  0  0  0
   26.4059   10.8203   20.4910 C   0  0  0  0  0  0  0  0  0  0  0  0
   28.3430   11.5978   21.6942 O   0  0  0  0  0  0  0  0  0  0  0  0
   27.8060   10.6556   21.1110 C   0  0  0  0  0  0  0  0  0  0  0  0
   28.4033    9.4151   21.0351 O   0  0  0  0  0  0  0  0  0  0  0  0
   29.4612    9.0598   20.1510 C   0  0  0  0  0  0  0  0  0  0  0  0
  2  3  2  0  0  0
  2  7  1  0  0  0
  3  4  1  0  0  0
  4  5  2  0  0  0
  5  6  1  0  0  0
  5  1  1  0  0  0
 31 32  1  0  0  0
  6  7  2  0  0  0
  7 10  1  0  0  0
 16 18  2  0  0  0
 14 15  1  0  0  0
 14  1  1  0  0  0
  1 28  1  0  0  0
 15 17  1  0  0  0
 16 17  1  0  0  0
 17 21  2  0  0  0
 18 19  1  0  0  0
 28 30  1  0  0  0
 19 24  1  0  0  0
 19 20  2  0  0  0
 22 24  1  0  0  0
 23 24  2  0  0  0
 20 21  1  0  0  0
  8 10  1  0  0  0
  9 10  2  0  0  0
 29 30  2  0  0  0
 31 30  1  0  0  0
 22 25  1  0  0  0
 22 26  1  0  0  0
 23 27  1  0  0  0
  8 11  1  0  0  0
  8 12  1  0  0  0
  9 13  1  0  0  0
M  END
> <minimizedAffinity>
-6.82390

$$$$
1AZ8


 32 33  0  0  0  0  0  0  0  0999 V2000
   26.8966   10.6305   18.5979 C   0  0  0  0  0  0  0  0  0  0  0  0
   29.7972   13.3910   17.2429 C   0  0  0  0  0  0  0  0  0  0  0  0
   29.8490   12.1032   16.7231 C   0  0  0  0  0  0  0  0  0  0  0  0
   28.9072   11.1662   17.1485 C   0  0  0  0  0  0  0  0  0  0  0  0
   27.9240   11.5319   18.0876 C   0  0  0  0  0  0  0  0  0  0  0  0
   27.8614   12.8259   18.5648 C   0  0  0  0  0  0  0  0  0  0  0  0
   28.7877   13.7528   18.1404 C   0  0  0  0  0  0  0  0  0  0  0  0
   28.4267   15.4116   19.9362 N   0  0  0  0  0  0  0  0  0  0  0  0
   28.9901   16.1277   17.8814 N   0  0  0  0  0  0  0  0  0  0  0  0
   28.7147   15.1406   18.6846 C   0  0  0  0  0  0  0  0  0  0  0  0
   28.2152   14.6815   20.5619 H   0  0  0  0  0  0  0  0  0  0  0  0
   28.4224   16.3450   20.2493 H   0  0  0  0  0  0  0  0  0  0  0  0
   29.2091   15.9486   16.9384 H   0  0  0  0  0  0  0  0  0  0  0  0
   26.4197    9.8019   17.4209 C   0  0  0  0  0  0  0  0  0  0  0  0
   24.9857    9.3309   17.5393 C   0  0  0  0  0  0  0  0  0  0  0  0
   23.1852    8.6147   15.9675 C   0  0  0  0  0  0  0  0  0  0  0  0
   24.5410    8.8385   16.1811 C   0  0  0  0  0  0  0  0  0  0  0  0
   22.7435    8.2136   14.7043 C   0  0  0  0  0  0  0  0  0  0  0  0
   23.6496    7.9665   13.6533 C   0  0  0  0  0  0  0  0  0  0  0  0
   25.0208    8.1655   13.8873 C   0  0  0  0  0  0  0  0  0  0  0  0
   25.4551    8.6211   15.1357 C   0  0  0  0  0  0  0  0  0  0  0  0
   21.8310    7.2026   12.1083 N   0  0  0  0  0  0  0  0  0  0  0  0
   23.9593    7.2437   11.3156 N   0  0  0  0  0  0  0  0  0  0  0  0
   23.1249    7.4596   12.3144 C   0  0  0  0  0  0  0  0  0  0  0  0
   21.1784    7.3514   12.8303 H   0  0  0  0  0  0  0  0  0  0  0  0
   21.5295    6.8644   11.2343 H   0  0  0  0  0  0  0  0  0  0  0  0
   24.9208    7.4217   11.4302 H   0  0  0  0  0  0  0  0  0  0  0  0
   27.3256    9.7827   19.8200 C   0  0  0  0  0  0  0  0  0  0  0  0
   25.3463    9.7631   21.1934 O   0  0  0  0  0  0  0  0  0  0  0  0
   26.5497   10.0164   21.1296 C   0  0  0  0  0  0  0  0  0  0  0  0
   27.2554   10.4634   22.2266 O   0  0  0  0  0  0  0  0  0  0  0  0
   27.2222    9.8796   23.5248 C   0  0  0  0  0  0  0  0  0  0  0  0
  2  3  2  0  0  0
  2  7  1  0  0  0
  3  4  1  0  0  0
  4  5  2  0  0  0
  5  6  1  0  0  0
  5  1  1  0  0  0
 31 32  1  0  0  0
  6  7  2  0  0  0
  7 10  1  0  0  0
 16 18  2  0  0  0
 14 15  1  0  0  0
 14  1  1  0  0  0
  1 28  1  0  0  0
 15 17  1  0  0  0
 16 17  1  0  0  0
 17 21  2  0  0  0
 18 19  1  0  0  0
 28 30  1  0  0  0
 19 24  1  0  0  0
 19 20  2  0  0  0
 22 24  1  0  0  0
 23 24  2  0  0  0
 20 21  1  0  0  0
  8 10  1  0  0  0
  9 10  2  0  0  0
 29 30  2  0  0  0
 31 30  1  0  0  0
 22 25  1  0  0  0
 22 26  1  0  0  0
 23 27  1  0  0  0
  8 11  1  0  0  0
  8 12  1  0  0  0
  9 13  1  0  0  0
M  END
> <minimizedAffinity>
-6.76333

$$$$
1AZ8


 32 33  0  0  0  0  0  0  0  0999 V2000
   28.7472   10.9975   18.7051 C   0  0  0  0  0  0  0  0  0  0  0  0
   28.5388    8.4704   22.0875 C   0  0  0  0  0  0  0  0  0  0  0  0
   28.9973    7.9122   20.9003 C   0  0  0  0  0  0  0  0  0  0  0  0
   29.0786    8.7174   19.7640 C   0  0  0  0  0  0  0  0  0  0  0  0
   28.7016   10.0722   19.8321 C   0  0  0  0  0  0  0  0  0  0  0  0
   28.2858   10.6218   21.0285 C   0  0  0  0  0  0  0  0  0  0  0  0
   28.2110    9.8283   22.1519 C   0  0  0  0  0  0  0  0  0  0  0  0
   27.8098   11.7227   23.6871 N   0  0  0  0  0  0  0  0  0  0  0  0
   27.1941    9.6544   24.3161 N   0  0  0  0  0  0  0  0  0  0  0  0
   27.7391   10.4375   23.4299 C   0  0  0  0  0  0  0  0  0  0  0  0
   28.2176   12.3341   23.0320 H   0  0  0  0  0  0  0  0  0  0  0  0
   27.4550   12.0753   24.5351 H   0  0  0  0  0  0  0  0  0  0  0  0
   27.1300    8.6870   24.1451 H   0  0  0  0  0  0  0  0  0  0  0  0
   27.3154   11.4057   18.4178 C   0  0  0  0  0  0  0  0  0  0  0  0
   26.5175   10.3645   17.6618 C   0  0  0  0  0  0  0  0  0  0  0  0
   25.0153   10.4205   19.6531 C   0  0  0  0  0  0  0  0  0  0  0  0
   25.6076    9.6660   18.6462 C   0  0  0  0  0  0  0  0  0  0  0  0
   24.1266    9.8087   20.5405 C   0  0  0  0  0  0  0  0  0  0  0  0
   23.8639    8.4252   20.4804 C   0  0  0  0  0  0  0  0  0  0  0  0
   24.4910    7.6648   19.4788 C   0  0  0  0  0  0  0  0  0  0  0  0
   25.3362    8.2897   18.5570 C   0  0  0  0  0  0  0  0  0  0  0  0
   23.1665    7.9002   22.8290 N   0  0  0  0  0  0  0  0  0  0  0  0
   21.8933    7.0919   21.1303 N   0  0  0  0  0  0  0  0  0  0  0  0
   22.9431    7.7910   21.5172 C   0  0  0  0  0  0  0  0  0  0  0  0
   23.9402    8.4140   23.1556 H   0  0  0  0  0  0  0  0  0  0  0  0
   22.5574    7.4669   23.4698 H   0  0  0  0  0  0  0  0  0  0  0  0
   21.6964    6.9893   20.1712 H   0  0  0  0  0  0  0  0  0  0  0  0
   29.7091   12.1965   18.8883 C   0  0  0  0  0  0  0  0  0  0  0  0
   28.7128   14.1167   19.9488 O   0  0  0  0  0  0  0  0  0  0  0  0
   29.0725   13.5987   18.8911 C   0  0  0  0  0  0  0  0  0  0  0  0
   28.9710   14.2636   17.6873 O   0  0  0  0  0  0  0  0  0  0  0  0
   28.8752   15.6751   17.5282 C   0  0  0  0  0  0  0  0  0  0  0  0
  2  3  2  0  0  0
  2  7  1  0  0  0
  3  4  1  0  0  0
  4  5  2  0  0  0
  5  6  1  0  0  0
  5  1  1  0  0  0
 31 32  1  0  0  0
  6  7  2  0  0  0
  7 10  1  0  0  0
 16 18  2  0  0  0
 14 15  1  0  0  0
 14  1  1  0  0  0
  1 28  1  0  0  0
 15 17  1  0  0  0
 16 17  1  0  0  0
 17 21  2  0  0  0
 18 19  1  0  0  0
 28 30  1  0  0  0
 19 24  1  0  0  0
 19 20  2  0  0  0
 22 24  1  0  0  0
 23 24  2  0  0  0
 20 21  1  0  0  0
  8 10  1  0  0  0
  9 10  2  0  0  0
 29 30  2  0  0  0
 31 30  1  0  0  0
 22 25  1  0  0  0
 22 26  1  0  0  0
 23 27  1  0  0  0
  8 11  1  0  0  0
  8 12  1  0  0  0
  9 13  1  0  0  0
M  END
> <minimizedAffinity>
-6.62649

$$$$
1AZ8


 32 33  0  0  0  0  0  0  0  0999 V2000
   27.5516   10.1035   18.9153 C   0  0  0  0  0  0  0  0  0  0  0  0
   24.6249    8.7422   21.6452 C   0  0  0  0  0  0  0  0  0  0  0  0
   24.2338    9.6941   20.7113 C   0  0  0  0  0  0  0  0  0  0  0  0
   25.1741   10.1660   19.7953 C   0  0  0  0  0  0  0  0  0  0  0  0
   26.4939    9.6765   19.8251 C   0  0  0  0  0  0  0  0  0  0  0  0
   26.8567    8.7020   20.7333 C   0  0  0  0  0  0  0  0  0  0  0  0
   25.9267    8.2317   21.6340 C   0  0  0  0  0  0  0  0  0  0  0  0
   27.5518    6.6772   22.6584 N   0  0  0  0  0  0  0  0  0  0  0  0
   25.4771    6.8120   23.5129 N   0  0  0  0  0  0  0  0  0  0  0  0
   26.3455    7.1933   22.6208 C   0  0  0  0  0  0  0  0  0  0  0  0
   28.2251    6.9504   21.9942 H   0  0  0  0  0  0  0  0  0  0  0  0
   27.7832    6.0168   23.3510 H   0  0  0  0  0  0  0  0  0  0  0  0
   24.5662    7.1854   23.5044 H   0  0  0  0  0  0  0  0  0  0  0  0
   28.7418   10.4794   19.7763 C   0  0  0  0  0  0  0  0  0  0  0  0
   28.6755   11.8825   20.3411 C   0  0  0  0  0  0  0  0  0  0  0  0
   29.7221   12.5718   18.1836 C   0  0  0  0  0  0  0  0  0  0  0  0
   28.8085   12.8563   19.1926 C   0  0  0  0  0  0  0  0  0  0  0  0
   29.8230   13.4274   17.0839 C   0  0  0  0  0  0  0  0  0  0  0  0
   29.0638   14.6121   17.0025 C   0  0  0  0  0  0  0  0  0  0  0  0
   28.1655   14.9075   18.0419 C   0  0  0  0  0  0  0  0  0  0  0  0
   28.0255   14.0211   19.1140 C   0  0  0  0  0  0  0  0  0  0  0  0
   28.5263   16.6514   15.6495 N   0  0  0  0  0  0  0  0  0  0  0  0
   30.1764   15.2793   14.9048 N   0  0  0  0  0  0  0  0  0  0  0  0
   29.2631   15.5506   15.8174 C   0  0  0  0  0  0  0  0  0  0  0  0
   27.8349   16.8864   16.3099 H   0  0  0  0  0  0  0  0  0  0  0  0
   28.6744   17.2279   14.8654 H   0  0  0  0  0  0  0  0  0  0  0  0
   30.7388   14.4763   14.9948 H   0  0  0  0  0  0  0  0  0  0  0  0
   27.8916    9.0911   17.7947 C   0  0  0  0  0  0  0  0  0  0  0  0
   26.0415    9.8354   16.4428 O   0  0  0  0  0  0  0  0  0  0  0  0
   26.8579    8.9403   16.6632 C   0  0  0  0  0  0  0  0  0  0  0  0
   26.9156    7.8041   15.8839 O   0  0  0  0  0  0  0  0  0  0  0  0
   26.4468    7.6962   14.5439 C   0  0  0  0  0  0  0  0  0  0  0  0
  2  3  2  0  0  0
  2  7  1  0  0  0
  3  4  1  0  0  0
  4  5  2  0  0  0
  5  6  1  0  0  0
  5  1  1  0  0  0
 31 32  1  0  0  0
  6  7  2  0  0  0
  7 10  1  0  0  0
 16 18  2  0  0  0
 14 15  1  0  0  0
 14  1  1  0  0  0
  1 28  1  0  0  0
 15 17  1  0  0  0
 16 17  1  0  0  0
 17 21  2  0  0  0
 18 19  1  0  0  0
 28 30  1  0  0  0
 19 24  1  0  0  0
 19 20  2  0  0  0
 22 24  1  0  0  0
 23 24  2  0  0  0
 20 21  1  0  0  0
  8 10  1  0  0  0
  9 10  2  0  0  0
 29 30  2  0  0  0
 31 30  1  0  0  0
 22 25  1  0  0  0
 22 26  1  0  0  0
 23 27  1  0  0  0
  8 11  1  0  0  0
  8 12  1  0  0  0
  9 13  1  0  0  0
M  END
> <minimizedAffinity>
-6.55780

$$$$
1AZ8


 32 33  0  0  0  0  0  0  0  0999 V2000
   28.9190   11.9914   18.4640 C   0  0  0  0  0  0  0  0  0  0  0  0
   31.6459    8.8190   19.0724 C   0  0  0  0  0  0  0  0  0  0  0  0
   30.3620    8.6642   19.5812 C   0  0  0  0  0  0  0  0  0  0  0  0
   29.4363    9.6917   19.3990 C   0  0  0  0  0  0  0  0  0  0  0  0
   29.8079   10.8604   18.7074 C   0  0  0  0  0  0  0  0  0  0  0  0
   31.0753   10.9824   18.1734 C   0  0  0  0  0  0  0  0  0  0  0  0
   31.9877    9.9654   18.3482 C   0  0  0  0  0  0  0  0  0  0  0  0
   33.6423    9.9401   16.5129 N   0  0  0  0  0  0  0  0  0  0  0  0
   34.3107   10.5104   18.5819 N   0  0  0  0  0  0  0  0  0  0  0  0
   33.3586   10.1266   17.7809 C   0  0  0  0  0  0  0  0  0  0  0  0
   32.9386    9.6499   15.8885 H   0  0  0  0  0  0  0  0  0  0  0  0
   34.5588   10.0903   16.1863 H   0  0  0  0  0  0  0  0  0  0  0  0
   34.1215   10.6567   19.5369 H   0  0  0  0  0  0  0  0  0  0  0  0
   27.5286   11.4189   18.2680 C   0  0  0  0  0  0  0  0  0  0  0  0
   26.6512   11.4955   19.4995 C   0  0  0  0  0  0  0  0  0  0  0  0
   24.8766   10.1016   20.5639 C   0  0  0  0  0  0  0  0  0  0  0  0
   25.6742   10.3431   19.4507 C   0  0  0  0  0  0  0  0  0  0  0  0
   23.9268    9.0780   20.5222 C   0  0  0  0  0  0  0  0  0  0  0  0
   23.8006    8.2380   19.3975 C   0  0  0  0  0  0  0  0  0  0  0  0
   24.6323    8.4698   18.2888 C   0  0  0  0  0  0  0  0  0  0  0  0
   25.5431    9.5303   18.3114 C   0  0  0  0  0  0  0  0  0  0  0  0
   21.9699    6.8947   20.4567 N   0  0  0  0  0  0  0  0  0  0  0  0
   22.7430    6.2328   18.4259 N   0  0  0  0  0  0  0  0  0  0  0  0
   22.7995    7.0883   19.4286 C   0  0  0  0  0  0  0  0  0  0  0  0
   21.9832    7.5125   21.2231 H   0  0  0  0  0  0  0  0  0  0  0  0
   21.3448    6.1342   20.4483 H   0  0  0  0  0  0  0  0  0  0  0  0
   23.3393    6.3433   17.6504 H   0  0  0  0  0  0  0  0  0  0  0  0
   28.9844   13.1098   19.5322 C   0  0  0  0  0  0  0  0  0  0  0  0
   27.5312   15.0269   19.6643 O   0  0  0  0  0  0  0  0  0  0  0  0
   28.4946   14.5052   19.1022 C   0  0  0  0  0  0  0  0  0  0  0  0
   29.1992   15.1601   18.1142 O   0  0  0  0  0  0  0  0  0  0  0  0
   28.8642   15.1733   16.7305 C   0  0  0  0  0  0  0  0  0  0  0  0
  2  3  2  0  0  0
  2  7  1  0  0  0
  3  4  1  0  0  0
  4  5  2  0  0  0
  5  6  1  0  0  0
  5  1  1  0  0  0
 31 32  1  0  0  0
  6  7  2  0  0  0
  7 10  1  0  0  0
 16 18  2  0  0  0
 14 15  1  0  0  0
 14  1  1  0  0  0
  1 28  1  0  0  0
 15 17  1  0  0  0
 16 17  1  0  0  0
 17 21  2  0  0  0
 18 19  1  0  0  0
 28 30  1  0  0  0
 19 24  1  0  0  0
 19 20  2  0  0  0
 22 24  1  0  0  0
 23 24  2  0  0  0
 20 21  1  0  0  0
  8 10  1  0  0  0
  9 10  2  0  0  0
 29 30  2  0  0  0
 31 30  1  0  0  0
 22 25  1  0  0  0
 22 26  1  0  0  0
 23 27  1  0  0  0
  8 11  1  0  0  0
  8 12  1  0  0  0
  9 13  1  0  0  0
M  END
> <minimizedAffinity>
-6.42411

$$$$
1AZ8


 32 33  0  0  0  0  0  0  0  0999 V2000
   28.5519   11.1216   18.9766 C   0  0  0  0  0  0  0  0  0  0  0  0
   28.4020    9.2439   22.7610 C   0  0  0  0  0  0  0  0  0  0  0  0
   27.6358   10.3899   22.5857 C   0  0  0  0  0  0  0  0  0  0  0  0
   27.6617   11.0356   21.3495 C   0  0  0  0  0  0  0  0  0  0  0  0
   28.4532   10.5236   20.3037 C   0  0  0  0  0  0  0  0  0  0  0  0
   29.1779    9.3619   20.4811 C   0  0  0  0  0  0  0  0  0  0  0  0
   29.1478    8.7210   21.7000 C   0  0  0  0  0  0  0  0  0  0  0  0
   29.4840    6.2732   21.6547 N   0  0  0  0  0  0  0  0  0  0  0  0
   31.2014    7.6038   22.2317 N   0  0  0  0  0  0  0  0  0  0  0  0
   29.9549    7.4782   21.8767 C   0  0  0  0  0  0  0  0  0  0  0  0
   28.5447    6.1537   21.3853 H   0  0  0  0  0  0  0  0  0  0  0  0
   30.0702    5.4889   21.7576 H   0  0  0  0  0  0  0  0  0  0  0  0
   31.5766    8.4976   22.4035 H   0  0  0  0  0  0  0  0  0  0  0  0
   27.1399   11.2058   18.4303 C   0  0  0  0  0  0  0  0  0  0  0  0
   26.8722   10.2735   17.2677 C   0  0  0  0  0  0  0  0  0  0  0  0
   25.4006    9.1804   18.9602 C   0  0  0  0  0  0  0  0  0  0  0  0
   25.6749    9.4199   17.6182 C   0  0  0  0  0  0  0  0  0  0  0  0
   24.2680    8.4416   19.3110 C   0  0  0  0  0  0  0  0  0  0  0  0
   23.4276    7.8753   18.3313 C   0  0  0  0  0  0  0  0  0  0  0  0
   23.7301    8.0965   16.9770 C   0  0  0  0  0  0  0  0  0  0  0  0
   24.8322    8.8833   16.6293 C   0  0  0  0  0  0  0  0  0  0  0  0
   22.1189    6.5538   20.0103 N   0  0  0  0  0  0  0  0  0  0  0  0
   21.3102    6.6892   17.8918 N   0  0  0  0  0  0  0  0  0  0  0  0
   22.2450    7.0155   18.7638 C   0  0  0  0  0  0  0  0  0  0  0  0
   22.7968    6.7764   20.6886 H   0  0  0  0  0  0  0  0  0  0  0  0
   21.3480    5.9908   20.2510 H   0  0  0  0  0  0  0  0  0  0  0  0
   21.3693    7.0110   16.9633 H   0  0  0  0  0  0  0  0  0  0  0  0
   29.3178   12.4658   18.9257 C   0  0  0  0  0  0  0  0  0  0  0  0
   27.8882   14.1930   19.8075 O   0  0  0  0  0  0  0  0  0  0  0  0
   28.4647   13.7433   18.8166 C   0  0  0  0  0  0  0  0  0  0  0  0
   28.4155   14.3840   17.5966 O   0  0  0  0  0  0  0  0  0  0  0  0
   28.4401   15.7941   17.4019 C   0  0  0  0  0  0  0  0  0  0  0  0
  2  3  2  0  0  0
  2  7  1  0  0  0
  3  4  1  0  0  0
  4  5  2  0  0  0
  5  6  1  0  0  0
  5  1  1  0  0  0
 31 32  1  0  0  0
  6  7  2  0  0  0
  7 10  1  0  0  0
 16 18  2  0  0  0
 14 15  1  0  0  0
 14  1  1  0  0  0
  1 28  1  0  0  0
 15 17  1  0  0  0
 16 17  1  0  0  0
 17 21  2  0  0  0
 18 19  1  0  0  0
 28 30  1  0  0  0
 19 24  1  0  0  0
 19 20  2  0  0  0
 22 24  1  0  0  0
 23 24  2  0  0  0
 20 21  1  0  0  0
  8 10  1  0  0  0
  9 10  2  0  0  0
 29 30  2  0  0  0
 31 30  1  0  0  0
 22 25  1  0  0  0
 22 26  1  0  0  0
 23 27  1  0  0  0
  8 11  1  0  0  0
  8 12  1  0  0  0
  9 13  1  0  0  0
M  END
> <minimizedAffinity>
-6.41559

$$$$
1AZ8


 32 33  0  0  0  0  0  0  0  0999 V2000
   28.3536   11.6769   18.7115 C   0  0  0  0  0  0  0  0  0  0  0  0
   28.2020   15.8640   18.1496 C   0  0  0  0  0  0  0  0  0  0  0  0
   27.7123   15.3623   19.3496 C   0  0  0  0  0  0  0  0  0  0  0  0
   27.7465   13.9851   19.5684 C   0  0  0  0  0  0  0  0  0  0  0  0
   28.2729   13.1280   18.5832 C   0  0  0  0  0  0  0  0  0  0  0  0
   28.7918   13.6451   17.4130 C   0  0  0  0  0  0  0  0  0  0  0  0
   28.7634   15.0056   17.1992 C   0  0  0  0  0  0  0  0  0  0  0  0
   29.0395   16.7429   15.4636 N   0  0  0  0  0  0  0  0  0  0  0  0
   30.1298   14.7898   15.2410 N   0  0  0  0  0  0  0  0  0  0  0  0
   29.3106   15.5418   15.9185 C   0  0  0  0  0  0  0  0  0  0  0  0
   28.4230   17.3293   15.9588 H   0  0  0  0  0  0  0  0  0  0  0  0
   29.4528   17.0573   14.6271 H   0  0  0  0  0  0  0  0  0  0  0  0
   30.3480   13.8853   15.5627 H   0  0  0  0  0  0  0  0  0  0  0  0
   28.1735   11.1054   17.3185 C   0  0  0  0  0  0  0  0  0  0  0  0
   26.8412   10.4200   17.1009 C   0  0  0  0  0  0  0  0  0  0  0  0
   25.4860   10.6682   19.1811 C   0  0  0  0  0  0  0  0  0  0  0  0
   26.3638    9.8905   18.4338 C   0  0  0  0  0  0  0  0  0  0  0  0
   24.9868   10.1759   20.3894 C   0  0  0  0  0  0  0  0  0  0  0  0
   25.4032    8.9316   20.9041 C   0  0  0  0  0  0  0  0  0  0  0  0
   26.3146    8.1662   20.1570 C   0  0  0  0  0  0  0  0  0  0  0  0
   26.7692    8.6359   18.9211 C   0  0  0  0  0  0  0  0  0  0  0  0
   25.6040    8.6056   23.3803 N   0  0  0  0  0  0  0  0  0  0  0  0
   23.6998    7.9022   22.3608 N   0  0  0  0  0  0  0  0  0  0  0  0
   24.8861    8.4709   22.2625 C   0  0  0  0  0  0  0  0  0  0  0  0
   26.4939    9.0251   23.3462 H   0  0  0  0  0  0  0  0  0  0  0  0
   25.2432    8.2853   24.2385 H   0  0  0  0  0  0  0  0  0  0  0  0
   23.1417    7.7857   21.5581 H   0  0  0  0  0  0  0  0  0  0  0  0
   29.6198   11.1588   19.4357 C   0  0  0  0  0  0  0  0  0  0  0  0
   31.4975   11.7851   18.0622 O   0  0  0  0  0  0  0  0  0  0  0  0
   30.8472   10.8623   18.5541 C   0  0  0  0  0  0  0  0  0  0  0  0
   31.2155    9.5446   18.3830 O   0  0  0  0  0  0  0  0  0  0  0  0
   30.3711    8.5069   17.8958 C   0  0  0  0  0  0  0  0  0  0  0  0
  2  3  2  0  0  0
  2  7  1  0  0  0
  3  4  1  0  0  0
  4  5  2  0  0  0
  5  6  1  0  0  0
  5  1  1  0  0  0
 31 32  1  0  0  0
  6  7  2  0  0  0
  7 10  1  0  0  0
 16 18  2  0  0  0
 14 15  1  0  0  0
 14  1  1  0  0  0
  1 28  1  0  0  0
 15 17  1  0  0  0
 16 17  1  0  0  0
 17 21  2  0  0  0
 18 19  1  0  0  0
 28 30  1  0  0  0
 19 24  1  0  0  0
 19 20  2  0  0  0
 22 24  1  0  0  0
 23 24  2  0  0  0
 20 21  1  0  0  0
  8 10  1  0  0  0
  9 10  2  0  0  0
 29 30  2  0  0  0
 31 30  1  0  0  0
 22 25  1  0  0  0
 22 26  1  0  0  0
 23 27  1  0  0  0
  8 11  1  0  0  0
  8 12  1  0  0  0
  9 13  1  0  0  0
M  END
> <minimizedAffinity>
-6.36919

$$$$
1AZ8


 32 33  0  0  0  0  0  0  0  0999 V2000
   30.0739   10.5088   16.5826 C   0  0  0  0  0  0  0  0  0  0  0  0
   28.0870   13.5452   18.7511 C   0  0  0  0  0  0  0  0  0  0  0  0
   28.9034   13.9417   17.6988 C   0  0  0  0  0  0  0  0  0  0  0  0
   29.5747   12.9659   16.9618 C   0  0  0  0  0  0  0  0  0  0  0  0
   29.4178   11.6051   17.2871 C   0  0  0  0  0  0  0  0  0  0  0  0
   28.5721   11.2249   18.3100 C   0  0  0  0  0  0  0  0  0  0  0  0
   27.9047   12.1880   19.0341 C   0  0  0  0  0  0  0  0  0  0  0  0
   27.3762   11.7615   21.4101 N   0  0  0  0  0  0  0  0  0  0  0  0
   25.7962   11.3941   19.8540 N   0  0  0  0  0  0  0  0  0  0  0  0
   27.0116   11.7563   20.1492 C   0  0  0  0  0  0  0  0  0  0  0  0
   28.2901   12.0317   21.6572 H   0  0  0  0  0  0  0  0  0  0  0  0
   26.7357   11.4953   22.1088 H   0  0  0  0  0  0  0  0  0  0  0  0
   25.5003   11.3824   18.9151 H   0  0  0  0  0  0  0  0  0  0  0  0
   31.5426   10.5681   16.9551 C   0  0  0  0  0  0  0  0  0  0  0  0
   31.8481   10.0452   18.3428 C   0  0  0  0  0  0  0  0  0  0  0  0
   33.8220    9.0755   19.5213 C   0  0  0  0  0  0  0  0  0  0  0  0
   33.3342    9.7817   18.4271 C   0  0  0  0  0  0  0  0  0  0  0  0
   35.1834    8.7707   19.5935 C   0  0  0  0  0  0  0  0  0  0  0  0
   36.0899    9.2194   18.6119 C   0  0  0  0  0  0  0  0  0  0  0  0
   35.5926    9.9591   17.5256 C   0  0  0  0  0  0  0  0  0  0  0  0
   34.2216   10.2145   17.4267 C   0  0  0  0  0  0  0  0  0  0  0  0
   38.0234    7.8914   19.4928 N   0  0  0  0  0  0  0  0  0  0  0  0
   38.4731    9.7092   18.2070 N   0  0  0  0  0  0  0  0  0  0  0  0
   37.5770    8.9238   18.7734 C   0  0  0  0  0  0  0  0  0  0  0  0
   37.3846    7.2834   19.9304 H   0  0  0  0  0  0  0  0  0  0  0  0
   38.9915    7.7380   19.5855 H   0  0  0  0  0  0  0  0  0  0  0  0
   38.1818   10.4805   17.6689 H   0  0  0  0  0  0  0  0  0  0  0  0
   29.4328    9.1177   16.8064 C   0  0  0  0  0  0  0  0  0  0  0  0
   30.4355    6.9597   16.4293 O   0  0  0  0  0  0  0  0  0  0  0  0
   29.9480    7.9690   15.9194 C   0  0  0  0  0  0  0  0  0  0  0  0
   29.7959    8.0900   14.5542 O   0  0  0  0  0  0  0  0  0  0  0  0
   28.6720    7.6404   13.8047 C   0  0  0  0  0  0  0  0  0  0  0  0
  2  3  2  0  0  0
  2  7  1  0  0  0
  3  4  1  0  0  0
  4  5  2  0  0  0
  5  6  1  0  0  0
  5  1  1  0  0  0
 31 32  1  0  0  0
  6  7  2  0  0  0
  7 10  1  0  0  0
 16 18  2  0  0  0
 14 15  1  0  0  0
 14  1  1  0  0  0
  1 28  1  0  0  0
 15 17  1  0  0  0
 16 17  1  0  0  0
 17 21  2  0  0  0
 18 19  1  0  0  0
 28 30  1  0  0  0
 19 24  1  0  0  0
 19 20  2  0  0  0
 22 24  1  0  0  0
 23 24  2  0  0  0
 20 21  1  0  0  0
  8 10  1  0  0  0
  9 10  2  0  0  0
 29 30  2  0  0  0
 31 30  1  0  0  0
 22 25  1  0  0  0
 22 26  1  0  0  0
 23 27  1  0  0  0
  8 11  1  0  0  0
  8 12  1  0  0  0
  9 13  1  0  0  0
M  END
> <minimizedAffinity>
-6.33528

$$$$
1AZ8


 32 33  0  0  0  0  0  0  0  0999 V2000
   28.6641   11.6872   18.6134 C   0  0  0  0  0  0  0  0  0  0  0  0
   32.1400    9.2872   18.7825 C   0  0  0  0  0  0  0  0  0  0  0  0
   32.2208   10.4795   18.0732 C   0  0  0  0  0  0  0  0  0  0  0  0
   31.0924   11.2961   17.9965 C   0  0  0  0  0  0  0  0  0  0  0  0
   29.8979   10.9088   18.6332 C   0  0  0  0  0  0  0  0  0  0  0  0
   29.8451    9.7406   19.3672 C   0  0  0  0  0  0  0  0  0  0  0  0
   30.9610    8.9371   19.4479 C   0  0  0  0  0  0  0  0  0  0  0  0
   30.6867    7.6307   21.5275 N   0  0  0  0  0  0  0  0  0  0  0  0
   30.9551    6.5431   19.5787 N   0  0  0  0  0  0  0  0  0  0  0  0
   30.8760    7.6684   20.2292 C   0  0  0  0  0  0  0  0  0  0  0  0
   30.6237    8.4688   22.0403 H   0  0  0  0  0  0  0  0  0  0  0  0
   30.6078    6.7644   21.9886 H   0  0  0  0  0  0  0  0  0  0  0  0
   31.0967    6.5466   18.6045 H   0  0  0  0  0  0  0  0  0  0  0  0
   27.5211   10.6950   18.7046 C   0  0  0  0  0  0  0  0  0  0  0  0
   26.4179   11.1111   19.6544 C   0  0  0  0  0  0  0  0  0  0  0  0
   25.1815    9.3005   18.4634 C   0  0  0  0  0  0  0  0  0  0  0  0
   25.3492   10.0424   19.6276 C   0  0  0  0  0  0  0  0  0  0  0  0
   24.2389    8.2699   18.4327 C   0  0  0  0  0  0  0  0  0  0  0  0
   23.4044    8.0043   19.5371 C   0  0  0  0  0  0  0  0  0  0  0  0
   23.5596    8.7796   20.6987 C   0  0  0  0  0  0  0  0  0  0  0  0
   24.5420    9.7732   20.7464 C   0  0  0  0  0  0  0  0  0  0  0  0
   21.5808    6.7705   18.3410 N   0  0  0  0  0  0  0  0  0  0  0  0
   22.1338    6.0913   20.4369 N   0  0  0  0  0  0  0  0  0  0  0  0
   22.3408    6.9170   19.4290 C   0  0  0  0  0  0  0  0  0  0  0  0
   21.7062    7.3682   17.5688 H   0  0  0  0  0  0  0  0  0  0  0  0
   20.8950    6.0648   18.3110 H   0  0  0  0  0  0  0  0  0  0  0  0
   22.6748    6.1688   21.2558 H   0  0  0  0  0  0  0  0  0  0  0  0
   28.5917   12.8157   19.6705 C   0  0  0  0  0  0  0  0  0  0  0  0
   27.7156   15.0579   19.7681 O   0  0  0  0  0  0  0  0  0  0  0  0
   28.3979   14.2482   19.1395 C   0  0  0  0  0  0  0  0  0  0  0  0
   29.0518   14.5994   17.9773 O   0  0  0  0  0  0  0  0  0  0  0  0
   28.8529   15.8068   17.2495 C   0  0  0  0  0  0  0  0  0  0  0  0
  2  3  2  0  0  0
  2  7  1  0  0  0
  3  4  1  0  0  0
  4  5  2  0  0  0
  5  6  1  0  0  0
  5  1  1  0  0  0
 31 32  1  0  0  0
  6  7  2  0  0  0
  7 10  1  0  0  0
 16 18  2  0  0  0
 14 15  1  0  0  0
 14  1  1  0  0  0
  1 28  1  0  0  0
 15 17  1  0  0  0
 16 17  1  0  0  0
 17 21  2  0  0  0
 18 19  1  0  0  0
 28 30  1  0  0  0
 19 24  1  0  0  0
 19 20  2  0  0  0
 22 24  1  0  0  0
 23 24  2  0  0  0
 20 21  1  0  0  0
  8 10  1  0  0  0
  9 10  2  0  0  0
 29 30  2  0  0  0
 31 30  1  0  0  0
 22 25  1  0  0  0
 22 26  1  0  0  0
 23 27  1  0  0  0
  8 11  1  0  0  0
  8 12  1  0  0  0
  9 13  1  0  0  0
M  END
> <minimizedAffinity>
-6.32490

$$$$
1AZ8


 32 33  0  0  0  0  0  0  0  0999 V2000
   28.0692   10.0454   17.6296 C   0  0  0  0  0  0  0  0  0  0  0  0
   28.9565   13.9113   19.0914 C   0  0  0  0  0  0  0  0  0  0  0  0
   28.7341   12.9095   20.0285 C   0  0  0  0  0  0  0  0  0  0  0  0
   28.4383   11.6217   19.5813 C   0  0  0  0  0  0  0  0  0  0  0  0
   28.3714   11.3534   18.2008 C   0  0  0  0  0  0  0  0  0  0  0  0
   28.6339   12.3503   17.2823 C   0  0  0  0  0  0  0  0  0  0  0  0
   28.9317   13.6206   17.7239 C   0  0  0  0  0  0  0  0  0  0  0  0
   29.1796   15.9697   16.9979 N   0  0  0  0  0  0  0  0  0  0  0  0
   29.4836   14.3225   15.4988 N   0  0  0  0  0  0  0  0  0  0  0  0
   29.1917   14.6882   16.7140 C   0  0  0  0  0  0  0  0  0  0  0  0
   28.9618   16.2698   17.9099 H   0  0  0  0  0  0  0  0  0  0  0  0
   29.3885   16.6307   16.2989 H   0  0  0  0  0  0  0  0  0  0  0  0
   29.4988   13.3669   15.2626 H   0  0  0  0  0  0  0  0  0  0  0  0
   26.7318   10.1749   16.9269 C   0  0  0  0  0  0  0  0  0  0  0  0
   25.6450    9.2918   17.5026 C   0  0  0  0  0  0  0  0  0  0  0  0
   23.4828    8.4154   16.6184 C   0  0  0  0  0  0  0  0  0  0  0  0
   24.7976    8.7855   16.3578 C   0  0  0  0  0  0  0  0  0  0  0  0
   22.6631    7.9979   15.5670 C   0  0  0  0  0  0  0  0  0  0  0  0
   23.1571    7.8803   14.2522 C   0  0  0  0  0  0  0  0  0  0  0  0
   24.4960    8.2269   14.0037 C   0  0  0  0  0  0  0  0  0  0  0  0
   25.2982    8.6981   15.0473 C   0  0  0  0  0  0  0  0  0  0  0  0
   22.1076    6.0445   12.9082 N   0  0  0  0  0  0  0  0  0  0  0  0
   21.5670    8.1896   12.3922 N   0  0  0  0  0  0  0  0  0  0  0  0
   22.2436    7.3500   13.1525 C   0  0  0  0  0  0  0  0  0  0  0  0
   22.5968    5.3878   13.4547 H   0  0  0  0  0  0  0  0  0  0  0  0
   21.5180    5.7385   12.1815 H   0  0  0  0  0  0  0  0  0  0  0  0
   21.6420    9.1597   12.5425 H   0  0  0  0  0  0  0  0  0  0  0  0
   29.1855    9.4544   16.7345 C   0  0  0  0  0  0  0  0  0  0  0  0
   30.9409    7.8677   17.1878 O   0  0  0  0  0  0  0  0  0  0  0  0
   29.7272    8.0683   17.1307 C   0  0  0  0  0  0  0  0  0  0  0  0
   28.8145    7.0905   17.4655 O   0  0  0  0  0  0  0  0  0  0  0  0
   27.9726    6.3973   16.5501 C   0  0  0  0  0  0  0  0  0  0  0  0
  2  3  2  0  0  0
  2  7  1  0  0  0
  3  4  1  0  0  0
  4  5  2  0  0  0
  5  6  1  0  0  0
  5  1  1  0  0  0
 31 32  1  0  0  0
  6  7  2  0  0  0
  7 10  1  0  0  0
 16 18  2  0  0  0
 14 15  1  0  0  0
 14  1  1  0  0  0
  1 28  1  0  0  0
 15 17  1  0  0  0
 16 17  1  0  0  0
 17 21  2  0  0  0
 18 19  1  0  0  0
 28 30  1  0  0  0
 19 24  1  0  0  0
 19 20  2  0  0  0
 22 24  1  0  0  0
 23 24  2  0  0  0
 20 21  1  0  0  0
  8 10  1  0  0  0
  9 10  2  0  0  0
 29 30  2  0  0  0
 31 30  1  0  0  0
 22 25  1  0  0  0
 22 26  1  0  0  0
 23 27  1  0  0  0
  8 11  1  0  0  0
  8 12  1  0  0  0
  9 13  1  0  0  0
M  END
> <minimizedAffinity>
-6.23871

$$$$
1AZ8


 32 33  0  0  0  0  0  0  0  0999 V2000
   27.8779   10.1807   19.2285 C   0  0  0  0  0  0  0  0  0  0  0  0
   29.5345   13.3851   17.0246 C   0  0  0  0  0  0  0  0  0  0  0  0
   29.8568   12.0960   16.6178 C   0  0  0  0  0  0  0  0  0  0  0  0
   29.3279   11.0147   17.3227 C   0  0  0  0  0  0  0  0  0  0  0  0
   28.4811   11.2385   18.4249 C   0  0  0  0  0  0  0  0  0  0  0  0
   28.1386   12.5245   18.7923 C   0  0  0  0  0  0  0  0  0  0  0  0
   28.6561   13.5923   18.0927 C   0  0  0  0  0  0  0  0  0  0  0  0
   28.6600   16.0534   17.8700 N   0  0  0  0  0  0  0  0  0  0  0  0
   27.5303   15.1096   19.5687 N   0  0  0  0  0  0  0  0  0  0  0  0
   28.2895   14.9746   18.5195 C   0  0  0  0  0  0  0  0  0  0  0  0
   29.2340   15.9760   17.0739 H   0  0  0  0  0  0  0  0  0  0  0  0
   28.3638   16.9401   18.1790 H   0  0  0  0  0  0  0  0  0  0  0  0
   27.2399   14.3147   20.0717 H   0  0  0  0  0  0  0  0  0  0  0  0
   27.0786    9.3120   18.2768 C   0  0  0  0  0  0  0  0  0  0  0  0
   25.6639    9.7968   18.0404 C   0  0  0  0  0  0  0  0  0  0  0  0
   24.5852    9.7994   20.2902 C   0  0  0  0  0  0  0  0  0  0  0  0
   24.7690    9.1513   19.0736 C   0  0  0  0  0  0  0  0  0  0  0  0
   23.7187    9.2511   21.2390 C   0  0  0  0  0  0  0  0  0  0  0  0
   23.0728    8.0179   21.0185 C   0  0  0  0  0  0  0  0  0  0  0  0
   23.2888    7.3547   19.7987 C   0  0  0  0  0  0  0  0  0  0  0  0
   24.1122    7.9331   18.8281 C   0  0  0  0  0  0  0  0  0  0  0  0
   21.0750    6.7499   21.8424 N   0  0  0  0  0  0  0  0  0  0  0  0
   22.5204    7.5848   23.3830 N   0  0  0  0  0  0  0  0  0  0  0  0
   22.1943    7.4250   22.1147 C   0  0  0  0  0  0  0  0  0  0  0  0
   20.7991    6.6106   20.9076 H   0  0  0  0  0  0  0  0  0  0  0  0
   20.5254    6.3915   22.5764 H   0  0  0  0  0  0  0  0  0  0  0  0
   23.3387    8.0770   23.6226 H   0  0  0  0  0  0  0  0  0  0  0  0
   28.8738    9.3849   20.1068 C   0  0  0  0  0  0  0  0  0  0  0  0
   29.7903    7.6157   18.7525 O   0  0  0  0  0  0  0  0  0  0  0  0
   29.1009    7.9091   19.7297 C   0  0  0  0  0  0  0  0  0  0  0  0
   28.5543    6.9428   20.5475 O   0  0  0  0  0  0  0  0  0  0  0  0
   27.2004    6.9004   20.9862 C   0  0  0  0  0  0  0  0  0  0  0  0
  2  3  2  0  0  0
  2  7  1  0  0  0
  3  4  1  0  0  0
  4  5  2  0  0  0
  5  6  1  0  0  0
  5  1  1  0  0  0
 31 32  1  0  0  0
  6  7  2  0  0  0
  7 10  1  0  0  0
 16 18  2  0  0  0
 14 15  1  0  0  0
 14  1  1  0  0  0
  1 28  1  0  0  0
 15 17  1  0  0  0
 16 17  1  0  0  0
 17 21  2  0  0  0
 18 19  1  0  0  0
 28 30  1  0  0  0
 19 24  1  0  0  0
 19 20  2  0  0  0
 22 24  1  0  0  0
 23 24  2  0  0  0
 20 21  1  0  0  0
  8 10  1  0  0  0
  9 10  2  0  0  0
 29 30  2  0  0  0
 31 30  1  0  0  0
 22 25  1  0  0  0
 22 26  1  0  0  0
 23 27  1  0  0  0
  8 11  1  0  0  0
  8 12  1  0  0  0
  9 13  1  0  0  0
M  END
> <minimizedAffinity>
-6.02384

$$$$
