1AZ8
 OpenBabel10272317083D

 50 51  0  0  1  0  0  0  0  0999 V2000
   28.7390   15.5160   17.6430 C   0  0  0  0  0  0  0  0  0  0  0  0
   38.3780    9.6050   18.5080 N   0  0  0  0  0  0  0  0  0  0  0  0
   28.5320   14.7240   18.7660 C   0  0  0  0  0  0  0  0  0  0  0  0
   38.1630   11.0710   16.7860 N   0  0  0  0  0  0  0  0  0  0  0  0
   28.8560   13.3690   18.7050 C   0  0  0  0  0  0  0  0  0  0  0  0
   30.1370   15.3820   14.1960 N   0  0  0  0  0  0  0  0  0  0  0  0
   26.5450   10.9340   18.6870 O   0  0  0  0  0  0  0  0  0  0  0  0
   29.3850   12.8240   17.5190 C   0  0  0  0  0  0  0  0  0  0  0  0
   29.1250   17.0520   15.3100 N   0  0  0  0  0  0  0  0  0  0  0  0
   26.8430   10.4020   16.4890 O   0  0  0  0  0  0  0  0  0  0  0  0
   29.6220   13.6320   16.4250 C   0  0  0  0  0  0  0  0  0  0  0  0
   29.3070   14.9710   16.4870 C   0  0  0  0  0  0  0  0  0  0  0  0
   33.9120   10.4160   16.5970 C   0  0  0  0  0  0  0  0  0  0  0  0
   26.1170    9.2680   16.0270 C   0  0  0  0  0  0  0  0  0  0  0  0
   31.2010   11.2970   17.7900 C   0  0  0  0  0  0  0  0  0  0  0  0
   29.7550   11.4230   17.3500 C   0  0  1  0  0  0  0  0  0  0  0  0
   31.7470    9.8870   17.7190 C   0  0  0  0  0  0  0  0  0  0  0  0
   33.2560    9.9680   17.7380 C   0  0  0  0  0  0  0  0  0  0  0  0
   35.3020   10.5530   16.6100 C   0  0  0  0  0  0  0  0  0  0  0  0
   28.8060   10.4130   18.0400 C   0  0  0  0  0  0  0  0  0  0  0  0
   36.0660   10.1850   17.7350 C   0  0  0  0  0  0  0  0  0  0  0  0
   37.5870   10.2830   17.6740 C   0  0  0  0  0  0  0  0  0  0  0  0
   35.3980    9.7030   18.8730 C   0  0  0  0  0  0  0  0  0  0  0  0
   34.0020    9.6200   18.8780 C   0  0  0  0  0  0  0  0  0  0  0  0
   29.5510   15.8220   15.2850 C   0  0  0  0  0  0  0  0  0  0  0  0
   27.3000   10.5900   17.7770 C   0  0  0  0  0  0  0  0  0  0  0  0
   28.4710   16.5120   17.6610 H   0  0  0  0  0  0  0  0  0  0  0  0
   38.1400    8.6880   18.7760 H   0  0  0  0  0  0  0  0  0  0  0  0
   39.1990   10.0220   18.8560 H   0  0  0  0  0  0  0  0  0  0  0  0
   28.1450   15.1320   19.6310 H   0  0  0  0  0  0  0  0  0  0  0  0
   37.6120   11.5870   16.1540 H   0  0  0  0  0  0  0  0  0  0  0  0
   28.7080   12.7650   19.5280 H   0  0  0  0  0  0  0  0  0  0  0  0
   30.4620   14.4540   14.1520 H   0  0  0  0  0  0  0  0  0  0  0  0
   30.2500   15.9810   13.4220 H   0  0  0  0  0  0  0  0  0  0  0  0
   28.6830   17.4040   16.1160 H   0  0  0  0  0  0  0  0  0  0  0  0
   30.0320   13.2340   15.5650 H   0  0  0  0  0  0  0  0  0  0  0  0
   33.3750   10.6470   15.7460 H   0  0  0  0  0  0  0  0  0  0  0  0
   25.8920    9.3880   14.9880 H   0  0  0  0  0  0  0  0  0  0  0  0
   25.2060    9.1780   16.5810 H   0  0  0  0  0  0  0  0  0  0  0  0
   26.7070    8.3860   16.1650 H   0  0  0  0  0  0  0  0  0  0  0  0
   31.7990   11.9220   17.1610 H   0  0  0  0  0  0  0  0  0  0  0  0
   31.2370   11.5920   18.8190 H   0  0  0  0  0  0  0  0  0  0  0  0
   29.6500   11.1510   16.3200 H   0  0  0  0  0  0  0  0  0  0  0  0
   31.4200    9.4170   16.8150 H   0  0  0  0  0  0  0  0  0  0  0  0
   31.3950    9.3100   18.5480 H   0  0  0  0  0  0  0  0  0  0  0  0
   35.7790   10.9320   15.7770 H   0  0  0  0  0  0  0  0  0  0  0  0
   28.9630   10.4910   19.0960 H   0  0  0  0  0  0  0  0  0  0  0  0
   29.0560    9.4610   17.6210 H   0  0  0  0  0  0  0  0  0  0  0  0
   35.9360    9.4110   19.7040 H   0  0  0  0  0  0  0  0  0  0  0  0
   33.5140    9.3000   19.7280 H   0  0  0  0  0  0  0  0  0  0  0  0
  1 27  1  0  0  0  0
  1  3  1  0  0  0  0
  2 28  1  0  0  0  0
  2 29  1  0  0  0  0
  3 30  1  0  0  0  0
  4 22  2  0  0  0  0
  5  3  2  0  0  0  0
  5 32  1  0  0  0  0
  6 25  1  0  0  0  0
  8  5  1  0  0  0  0
  9 35  1  0  0  0  0
 10 26  1  0  0  0  0
 11 12  1  0  0  0  0
 11  8  2  0  0  0  0
 12  1  2  0  0  0  0
 13 19  2  0  0  0  0
 13 18  1  0  0  0  0
 14 40  1  0  0  0  0
 14 10  1  0  0  0  0
 14 39  1  0  0  0  0
 15 42  1  0  0  0  0
 16 43  1  6  0  0  0
 16  8  1  0  0  0  0
 16 15  1  0  0  0  0
 16 20  1  0  0  0  0
 17 18  1  0  0  0  0
 17 15  1  0  0  0  0
 17 45  1  0  0  0  0
 18 24  2  0  0  0  0
 19 21  1  0  0  0  0
 20 47  1  0  0  0  0
 21 23  2  0  0  0  0
 22 21  1  0  0  0  0
 22  2  1  0  0  0  0
 23 24  1  0  0  0  0
 23 49  1  0  0  0  0
 24 50  1  0  0  0  0
 25  9  2  0  0  0  0
 25 12  1  0  0  0  0
 26 20  1  0  0  0  0
 26  7  2  0  0  0  0
 31  4  1  0  0  0  0
 33  6  1  0  0  0  0
 34  6  1  0  0  0  0
 36 11  1  0  0  0  0
 37 13  1  0  0  0  0
 38 14  1  0  0  0  0
 41 15  1  0  0  0  0
 44 17  1  0  0  0  0
 46 19  1  0  0  0  0
 48 20  1  0  0  0  0
M  END
>  <Pose>
1

>  <Score>
-8.86

$$$$
1AZ8
 OpenBabel10272317083D

 50 51  0  0  1  0  0  0  0  0999 V2000
   28.8020   15.1360   17.9670 C   0  0  0  0  0  0  0  0  0  0  0  0
   38.6830    9.6420   18.5260 N   0  0  0  0  0  0  0  0  0  0  0  0
   28.7210   14.2610   19.0430 C   0  0  0  0  0  0  0  0  0  0  0  0
   38.3700   11.0820   16.7980 N   0  0  0  0  0  0  0  0  0  0  0  0
   29.1470   12.9430   18.8740 C   0  0  0  0  0  0  0  0  0  0  0  0
   30.1490   15.3950   14.5140 N   0  0  0  0  0  0  0  0  0  0  0  0
   28.8220    8.7870   15.5730 O   0  0  0  0  0  0  0  0  0  0  0  0
   29.6510   12.5200   17.6300 C   0  0  0  0  0  0  0  0  0  0  0  0
   28.8000   16.7790   15.6610 N   0  0  0  0  0  0  0  0  0  0  0  0
   26.9720    9.9260   16.2650 O   0  0  0  0  0  0  0  0  0  0  0  0
   29.7630   13.4120   16.5820 C   0  0  0  0  0  0  0  0  0  0  0  0
   29.3480   14.7150   16.7500 C   0  0  0  0  0  0  0  0  0  0  0  0
   34.1950    9.6780   16.7140 C   0  0  0  0  0  0  0  0  0  0  0  0
   25.9370    9.1480   15.6720 C   0  0  0  0  0  0  0  0  0  0  0  0
   31.4130   10.9850   18.1210 C   0  0  0  0  0  0  0  0  0  0  0  0
   30.1210   11.1680   17.3480 C   0  0  1  0  0  0  0  0  0  0  0  0
   32.0360    9.6140   17.9630 C   0  0  0  0  0  0  0  0  0  0  0  0
   33.5380    9.7830   17.9350 C   0  0  0  0  0  0  0  0  0  0  0  0
   35.5750    9.8860   16.6540 C   0  0  0  0  0  0  0  0  0  0  0  0
   29.0800   10.0520   17.6070 C   0  0  0  0  0  0  0  0  0  0  0  0
   36.3320   10.1380   17.8170 C   0  0  0  0  0  0  0  0  0  0  0  0
   37.8450   10.2850   17.7090 C   0  0  0  0  0  0  0  0  0  0  0  0
   35.6630   10.2110   19.0510 C   0  0  0  0  0  0  0  0  0  0  0  0
   34.2750   10.0580   19.1010 C   0  0  0  0  0  0  0  0  0  0  0  0
   29.4570   15.6570   15.5980 C   0  0  0  0  0  0  0  0  0  0  0  0
   28.2910    9.5450   16.3850 C   0  0  0  0  0  0  0  0  0  0  0  0
   28.4580   16.1040   18.0670 H   0  0  0  0  0  0  0  0  0  0  0  0
   39.3860   10.1400   19.0020 H   0  0  0  0  0  0  0  0  0  0  0  0
   38.5980    8.6690   18.6510 H   0  0  0  0  0  0  0  0  0  0  0  0
   28.3510   14.5800   19.9520 H   0  0  0  0  0  0  0  0  0  0  0  0
   37.7830   11.5730   16.1780 H   0  0  0  0  0  0  0  0  0  0  0  0
   29.0930   12.2780   19.6620 H   0  0  0  0  0  0  0  0  0  0  0  0
   30.6210   16.1190   14.0440 H   0  0  0  0  0  0  0  0  0  0  0  0
   30.1950   14.4730   14.1700 H   0  0  0  0  0  0  0  0  0  0  0  0
   28.2740   16.9970   16.4650 H   0  0  0  0  0  0  0  0  0  0  0  0
   30.1550   13.1050   15.6780 H   0  0  0  0  0  0  0  0  0  0  0  0
   33.6670    9.4480   15.8580 H   0  0  0  0  0  0  0  0  0  0  0  0
   25.0150    9.6880   15.7160 H   0  0  0  0  0  0  0  0  0  0  0  0
   25.8360    8.2250   16.2040 H   0  0  0  0  0  0  0  0  0  0  0  0
   26.1840    8.9450   14.6510 H   0  0  0  0  0  0  0  0  0  0  0  0
   32.1160   11.7150   17.7790 H   0  0  0  0  0  0  0  0  0  0  0  0
   31.1720   11.0980   19.1570 H   0  0  0  0  0  0  0  0  0  0  0  0
   30.2930   11.0650   16.2970 H   0  0  0  0  0  0  0  0  0  0  0  0
   31.7040    9.1670   17.0500 H   0  0  0  0  0  0  0  0  0  0  0  0
   31.7490    8.9800   18.7760 H   0  0  0  0  0  0  0  0  0  0  0  0
   36.0510    9.8550   15.7390 H   0  0  0  0  0  0  0  0  0  0  0  0
   28.3720   10.4270   18.3170 H   0  0  0  0  0  0  0  0  0  0  0  0
   29.6470    9.2100   17.9450 H   0  0  0  0  0  0  0  0  0  0  0  0
   36.1970   10.3780   19.9180 H   0  0  0  0  0  0  0  0  0  0  0  0
   33.7840   10.1490   20.0040 H   0  0  0  0  0  0  0  0  0  0  0  0
  1 27  1  0  0  0  0
  1  3  1  0  0  0  0
  2 29  1  0  0  0  0
  2 28  1  0  0  0  0
  3 30  1  0  0  0  0
  4 22  2  0  0  0  0
  5  3  2  0  0  0  0
  5 32  1  0  0  0  0
  6 25  1  0  0  0  0
  7 26  2  0  0  0  0
  8  5  1  0  0  0  0
  9 35  1  0  0  0  0
 10 26  1  0  0  0  0
 11 12  1  0  0  0  0
 11  8  2  0  0  0  0
 12  1  2  0  0  0  0
 13 18  1  0  0  0  0
 14 38  1  0  0  0  0
 14 39  1  0  0  0  0
 14 10  1  0  0  0  0
 15 42  1  0  0  0  0
 16 43  1  6  0  0  0
 16 20  1  0  0  0  0
 16  8  1  0  0  0  0
 16 15  1  0  0  0  0
 17 15  1  0  0  0  0
 17 45  1  0  0  0  0
 18 17  1  0  0  0  0
 18 24  2  0  0  0  0
 19 13  2  0  0  0  0
 19 21  1  0  0  0  0
 20 48  1  0  0  0  0
 20 47  1  0  0  0  0
 21 23  2  0  0  0  0
 22 21  1  0  0  0  0
 22  2  1  0  0  0  0
 23 24  1  0  0  0  0
 23 49  1  0  0  0  0
 24 50  1  0  0  0  0
 25  9  2  0  0  0  0
 25 12  1  0  0  0  0
 26 20  1  0  0  0  0
 31  4  1  0  0  0  0
 33  6  1  0  0  0  0
 34  6  1  0  0  0  0
 36 11  1  0  0  0  0
 37 13  1  0  0  0  0
 40 14  1  0  0  0  0
 41 15  1  0  0  0  0
 44 17  1  0  0  0  0
 46 19  1  0  0  0  0
M  END
>  <Pose>
1

>  <Score>
-8.78

$$$$
1AZ8
 OpenBabel10272317083D

 50 51  0  0  1  0  0  0  0  0999 V2000
   28.9160   15.4960   17.7380 C   0  0  0  0  0  0  0  0  0  0  0  0
   38.0950    9.6370   18.8580 N   0  0  0  0  0  0  0  0  0  0  0  0
   28.7000   14.7530   18.8920 C   0  0  0  0  0  0  0  0  0  0  0  0
   38.3270   10.5380   16.7850 N   0  0  0  0  0  0  0  0  0  0  0  0
   28.9390   13.3790   18.8640 C   0  0  0  0  0  0  0  0  0  0  0  0
   30.1410   15.1610   14.2380 N   0  0  0  0  0  0  0  0  0  0  0  0
   26.7850   10.5060   17.2680 O   0  0  0  0  0  0  0  0  0  0  0  0
   29.3940   12.7670   17.6810 C   0  0  0  0  0  0  0  0  0  0  0  0
   29.3620   16.9450   15.3620 N   0  0  0  0  0  0  0  0  0  0  0  0
   26.5870   10.5080   19.5400 O   0  0  0  0  0  0  0  0  0  0  0  0
   29.6420   13.5240   16.5540 C   0  0  0  0  0  0  0  0  0  0  0  0
   29.4110   14.8820   16.5830 C   0  0  0  0  0  0  0  0  0  0  0  0
   33.7790   10.6600   18.1900 C   0  0  0  0  0  0  0  0  0  0  0  0
   26.6180   11.5280   20.5330 C   0  0  0  0  0  0  0  0  0  0  0  0
   31.1730   11.1750   17.6830 C   0  0  0  0  0  0  0  0  0  0  0  0
   29.6720   11.3410   17.5450 C   0  0  1  0  0  0  0  0  0  0  0  0
   31.7330    9.9850   16.9310 C   0  0  0  0  0  0  0  0  0  0  0  0
   33.2350    9.9900   17.0990 C   0  0  0  0  0  0  0  0  0  0  0  0
   35.1600   10.6320   18.3970 C   0  0  0  0  0  0  0  0  0  0  0  0
   28.8580   10.4280   18.4940 C   0  0  0  0  0  0  0  0  0  0  0  0
   36.0270    9.9920   17.4880 C   0  0  0  0  0  0  0  0  0  0  0  0
   37.5330   10.0510   17.7200 C   0  0  0  0  0  0  0  0  0  0  0  0
   35.4710    9.3440   16.3720 C   0  0  0  0  0  0  0  0  0  0  0  0
   34.0840    9.3260   16.1970 C   0  0  0  0  0  0  0  0  0  0  0  0
   29.6660   15.6790   15.3470 C   0  0  0  0  0  0  0  0  0  0  0  0
   27.3240   10.5010   18.3750 C   0  0  0  0  0  0  0  0  0  0  0  0
   28.7100   16.5070   17.7330 H   0  0  0  0  0  0  0  0  0  0  0  0
   38.9970    9.9460   19.1020 H   0  0  0  0  0  0  0  0  0  0  0  0
   37.6060    9.0240   19.4540 H   0  0  0  0  0  0  0  0  0  0  0  0
   28.3680   15.2100   19.7560 H   0  0  0  0  0  0  0  0  0  0  0  0
   37.9490   10.8530   15.9330 H   0  0  0  0  0  0  0  0  0  0  0  0
   28.7820   12.8110   19.7120 H   0  0  0  0  0  0  0  0  0  0  0  0
   30.2190   15.7170   13.4290 H   0  0  0  0  0  0  0  0  0  0  0  0
   30.4200   14.2170   14.2160 H   0  0  0  0  0  0  0  0  0  0  0  0
   29.0040   17.3560   16.1830 H   0  0  0  0  0  0  0  0  0  0  0  0
   29.9970   13.0760   15.6950 H   0  0  0  0  0  0  0  0  0  0  0  0
   33.1660   11.1750   18.8410 H   0  0  0  0  0  0  0  0  0  0  0  0
   25.9470   11.2740   21.3270 H   0  0  0  0  0  0  0  0  0  0  0  0
   26.3190   12.4590   20.0970 H   0  0  0  0  0  0  0  0  0  0  0  0
   27.6110   11.6190   20.9200 H   0  0  0  0  0  0  0  0  0  0  0  0
   31.6450   12.0600   17.3100 H   0  0  0  0  0  0  0  0  0  0  0  0
   31.3720   11.0070   18.7200 H   0  0  0  0  0  0  0  0  0  0  0  0
   29.3420   11.0060   16.5840 H   0  0  0  0  0  0  0  0  0  0  0  0
   31.4830   10.0610   15.8940 H   0  0  0  0  0  0  0  0  0  0  0  0
   31.3190    9.0760   17.3150 H   0  0  0  0  0  0  0  0  0  0  0  0
   35.5540   11.0890   19.2340 H   0  0  0  0  0  0  0  0  0  0  0  0
   29.1190   10.6880   19.4980 H   0  0  0  0  0  0  0  0  0  0  0  0
   29.1140    9.4280   18.2110 H   0  0  0  0  0  0  0  0  0  0  0  0
   36.0850    8.8820   15.6830 H   0  0  0  0  0  0  0  0  0  0  0  0
   33.6780    8.8180   15.3950 H   0  0  0  0  0  0  0  0  0  0  0  0
  1  3  1  0  0  0  0
  2 28  1  0  0  0  0
  2 29  1  0  0  0  0
  3 30  1  0  0  0  0
  4 22  2  0  0  0  0
  5  3  2  0  0  0  0
  5 32  1  0  0  0  0
  6 25  1  0  0  0  0
  7 26  2  0  0  0  0
  8  5  1  0  0  0  0
  9 35  1  0  0  0  0
 10 14  1  0  0  0  0
 11 12  1  0  0  0  0
 11  8  2  0  0  0  0
 12  1  2  0  0  0  0
 13 19  1  0  0  0  0
 13 37  1  0  0  0  0
 14 40  1  0  0  0  0
 14 38  1  0  0  0  0
 15 42  1  0  0  0  0
 16 43  1  6  0  0  0
 16  8  1  0  0  0  0
 16 15  1  0  0  0  0
 16 20  1  0  0  0  0
 17 18  1  0  0  0  0
 17 45  1  0  0  0  0
 17 15  1  0  0  0  0
 18 13  2  0  0  0  0
 19 46  1  0  0  0  0
 20 47  1  0  0  0  0
 21 22  1  0  0  0  0
 21 19  2  0  0  0  0
 22  2  1  0  0  0  0
 23 21  1  0  0  0  0
 24 23  2  0  0  0  0
 24 18  1  0  0  0  0
 25  9  2  0  0  0  0
 25 12  1  0  0  0  0
 26 20  1  0  0  0  0
 26 10  1  0  0  0  0
 27  1  1  0  0  0  0
 31  4  1  0  0  0  0
 33  6  1  0  0  0  0
 34  6  1  0  0  0  0
 36 11  1  0  0  0  0
 39 14  1  0  0  0  0
 41 15  1  0  0  0  0
 44 17  1  0  0  0  0
 48 20  1  0  0  0  0
 49 23  1  0  0  0  0
 50 24  1  0  0  0  0
M  END
>  <Pose>
2

>  <Score>
-8.73

$$$$
1AZ8
 OpenBabel10272317083D

 50 51  0  0  1  0  0  0  0  0999 V2000
   28.5930   15.6510   17.9430 C   0  0  0  0  0  0  0  0  0  0  0  0
   38.0370   10.8560   16.9030 N   0  0  0  0  0  0  0  0  0  0  0  0
   28.3740   15.0740   19.1880 C   0  0  0  0  0  0  0  0  0  0  0  0
   37.9110    9.0100   18.2200 N   0  0  0  0  0  0  0  0  0  0  0  0
   28.6680   13.7210   19.3640 C   0  0  0  0  0  0  0  0  0  0  0  0
   30.5540   15.4400   14.9430 N   0  0  0  0  0  0  0  0  0  0  0  0
   27.2550   11.4950   21.1300 O   0  0  0  0  0  0  0  0  0  0  0  0
   29.1800   12.9660   18.2920 C   0  0  0  0  0  0  0  0  0  0  0  0
   28.4180   16.1420   14.9820 N   0  0  0  0  0  0  0  0  0  0  0  0
   26.6260   10.6070   19.1250 O   0  0  0  0  0  0  0  0  0  0  0  0
   29.4290   13.5630   17.0730 C   0  0  0  0  0  0  0  0  0  0  0  0
   29.1440   14.9000   16.9000 C   0  0  0  0  0  0  0  0  0  0  0  0
   33.6330   10.0780   18.6870 C   0  0  0  0  0  0  0  0  0  0  0  0
   25.2700   10.2870   19.4150 C   0  0  0  0  0  0  0  0  0  0  0  0
   31.0090   11.4410   18.1170 C   0  0  0  0  0  0  0  0  0  0  0  0
   29.5180   11.5490   18.3710 C   0  0  1  0  0  0  0  0  0  0  0  0
   31.4370   10.1250   17.5040 C   0  0  0  0  0  0  0  0  0  0  0  0
   32.9480   10.0900   17.4770 C   0  0  0  0  0  0  0  0  0  0  0  0
   35.0280    9.9890   18.6880 C   0  0  0  0  0  0  0  0  0  0  0  0
   29.0570   10.8420   19.6690 C   0  0  0  0  0  0  0  0  0  0  0  0
   35.7640    9.9770   17.4860 C   0  0  0  0  0  0  0  0  0  0  0  0
   37.2880    9.9530   17.5410 C   0  0  0  0  0  0  0  0  0  0  0  0
   35.0640   10.0210   16.2680 C   0  0  0  0  0  0  0  0  0  0  0  0
   33.6660   10.0530   16.2700 C   0  0  0  0  0  0  0  0  0  0  0  0
   29.4020   15.5210   15.5680 C   0  0  0  0  0  0  0  0  0  0  0  0
   27.5730   10.9960   20.0490 C   0  0  0  0  0  0  0  0  0  0  0  0
   28.3480   16.6410   17.7870 H   0  0  0  0  0  0  0  0  0  0  0  0
   38.7770   11.3030   17.3740 H   0  0  0  0  0  0  0  0  0  0  0  0
   37.8490   11.0750   15.9620 H   0  0  0  0  0  0  0  0  0  0  0  0
   28.0010   15.6360   19.9680 H   0  0  0  0  0  0  0  0  0  0  0  0
   37.3920    8.3260   18.7030 H   0  0  0  0  0  0  0  0  0  0  0  0
   28.5110   13.2750   20.2810 H   0  0  0  0  0  0  0  0  0  0  0  0
   30.7860   14.6240   14.4440 H   0  0  0  0  0  0  0  0  0  0  0  0
   31.1850   16.1950   14.9740 H   0  0  0  0  0  0  0  0  0  0  0  0
   27.5460   16.2150   15.4310 H   0  0  0  0  0  0  0  0  0  0  0  0
   29.8260   13.0120   16.2960 H   0  0  0  0  0  0  0  0  0  0  0  0
   33.1160   10.1340   19.5780 H   0  0  0  0  0  0  0  0  0  0  0  0
   24.7650   10.0200   18.5100 H   0  0  0  0  0  0  0  0  0  0  0  0
   24.7890   11.1370   19.8540 H   0  0  0  0  0  0  0  0  0  0  0  0
   25.2350    9.4650   20.0990 H   0  0  0  0  0  0  0  0  0  0  0  0
   31.2950   12.2300   17.4530 H   0  0  0  0  0  0  0  0  0  0  0  0
   31.4900   11.5100   19.0700 H   0  0  0  0  0  0  0  0  0  0  0  0
   28.9690   11.0120   17.6250 H   0  0  0  0  0  0  0  0  0  0  0  0
   31.0540   10.0470   16.5080 H   0  0  0  0  0  0  0  0  0  0  0  0
   31.0570    9.3060   18.0800 H   0  0  0  0  0  0  0  0  0  0  0  0
   35.5290    9.9320   19.5880 H   0  0  0  0  0  0  0  0  0  0  0  0
   29.6410   11.2340   20.4760 H   0  0  0  0  0  0  0  0  0  0  0  0
   29.1940    9.7970   19.4850 H   0  0  0  0  0  0  0  0  0  0  0  0
   35.5810   10.0290   15.3750 H   0  0  0  0  0  0  0  0  0  0  0  0
   33.1560   10.0490   15.3730 H   0  0  0  0  0  0  0  0  0  0  0  0
  1  3  1  0  0  0  0
  2 28  1  0  0  0  0
  2 22  1  0  0  0  0
  3  5  2  0  0  0  0
  3 30  1  0  0  0  0
  4 31  1  0  0  0  0
  5 32  1  0  0  0  0
  6 34  1  0  0  0  0
  6 25  1  0  0  0  0
  8 16  1  0  0  0  0
  8  5  1  0  0  0  0
  9 35  1  0  0  0  0
  9 25  2  0  0  0  0
 10 14  1  0  0  0  0
 10 26  1  0  0  0  0
 11  8  2  0  0  0  0
 12 11  1  0  0  0  0
 12  1  2  0  0  0  0
 13 19  1  0  0  0  0
 13 37  1  0  0  0  0
 14 39  1  0  0  0  0
 14 40  1  0  0  0  0
 15 16  1  0  0  0  0
 15 42  1  0  0  0  0
 16 43  1  6  0  0  0
 16 20  1  0  0  0  0
 17 45  1  0  0  0  0
 17 15  1  0  0  0  0
 18 17  1  0  0  0  0
 18 13  2  0  0  0  0
 19 46  1  0  0  0  0
 20 26  1  0  0  0  0
 20 47  1  0  0  0  0
 21 22  1  0  0  0  0
 21 19  2  0  0  0  0
 22  4  2  0  0  0  0
 23 24  2  0  0  0  0
 23 21  1  0  0  0  0
 24 18  1  0  0  0  0
 25 12  1  0  0  0  0
 26  7  2  0  0  0  0
 27  1  1  0  0  0  0
 29  2  1  0  0  0  0
 33  6  1  0  0  0  0
 36 11  1  0  0  0  0
 38 14  1  0  0  0  0
 41 15  1  0  0  0  0
 44 17  1  0  0  0  0
 48 20  1  0  0  0  0
 49 23  1  0  0  0  0
 50 24  1  0  0  0  0
M  END
>  <Pose>
2

>  <Score>
-8.63

$$$$
1AZ8
 OpenBabel10272317083D

 50 51  0  0  1  0  0  0  0  0999 V2000
   28.7110   15.6940   17.6770 C   0  0  0  0  0  0  0  0  0  0  0  0
   38.1070    8.7670   16.8590 N   0  0  0  0  0  0  0  0  0  0  0  0
   28.5270   14.9320   18.8240 C   0  0  0  0  0  0  0  0  0  0  0  0
   38.0950   11.0320   17.0280 N   0  0  0  0  0  0  0  0  0  0  0  0
   28.8330   13.5710   18.7850 C   0  0  0  0  0  0  0  0  0  0  0  0
   29.8940   15.4360   14.1570 N   0  0  0  0  0  0  0  0  0  0  0  0
   26.4200   10.8890   18.2290 O   0  0  0  0  0  0  0  0  0  0  0  0
   29.3220   12.9930   17.5980 C   0  0  0  0  0  0  0  0  0  0  0  0
   29.1690   17.2040   15.3420 N   0  0  0  0  0  0  0  0  0  0  0  0
   27.2800    9.3920   16.7380 O   0  0  0  0  0  0  0  0  0  0  0  0
   29.5370   13.7720   16.4790 C   0  0  0  0  0  0  0  0  0  0  0  0
   29.2410   15.1160   16.5190 C   0  0  0  0  0  0  0  0  0  0  0  0
   34.0020   10.2530   18.7220 C   0  0  0  0  0  0  0  0  0  0  0  0
   26.1630    9.2750   15.8640 C   0  0  0  0  0  0  0  0  0  0  0  0
   31.1590   11.4720   17.7230 C   0  0  0  0  0  0  0  0  0  0  0  0
   29.6710   11.5840   17.4520 C   0  0  1  0  0  0  0  0  0  0  0  0
   31.6400   10.0540   17.9440 C   0  0  0  0  0  0  0  0  0  0  0  0
   33.1260   10.0160   17.6690 C   0  0  0  0  0  0  0  0  0  0  0  0
   35.3800   10.1680   18.5060 C   0  0  0  0  0  0  0  0  0  0  0  0
   28.8120   10.6110   18.2960 C   0  0  0  0  0  0  0  0  0  0  0  0
   35.9080    9.9090   17.2250 C   0  0  0  0  0  0  0  0  0  0  0  0
   37.4190    9.8990   17.0240 C   0  0  0  0  0  0  0  0  0  0  0  0
   35.0150    9.7020   16.1590 C   0  0  0  0  0  0  0  0  0  0  0  0
   33.6370    9.7320   16.3900 C   0  0  0  0  0  0  0  0  0  0  0  0
   29.4610   15.9360   15.2910 C   0  0  0  0  0  0  0  0  0  0  0  0
   27.3990   10.3010   17.7680 C   0  0  0  0  0  0  0  0  0  0  0  0
   28.4560   16.6940   17.6790 H   0  0  0  0  0  0  0  0  0  0  0  0
   37.6820    7.9000   17.0490 H   0  0  0  0  0  0  0  0  0  0  0  0
   39.0400    8.7990   16.5460 H   0  0  0  0  0  0  0  0  0  0  0  0
   28.1700   15.3650   19.6900 H   0  0  0  0  0  0  0  0  0  0  0  0
   37.6220   11.8870   17.1480 H   0  0  0  0  0  0  0  0  0  0  0  0
   28.7010   12.9890   19.6270 H   0  0  0  0  0  0  0  0  0  0  0  0
   30.1030   14.4770   14.0900 H   0  0  0  0  0  0  0  0  0  0  0  0
   30.0100   16.0210   13.3740 H   0  0  0  0  0  0  0  0  0  0  0  0
   28.8430   17.6000   16.1810 H   0  0  0  0  0  0  0  0  0  0  0  0
   29.9180   13.3490   15.6180 H   0  0  0  0  0  0  0  0  0  0  0  0
   33.6370   10.4900   19.6580 H   0  0  0  0  0  0  0  0  0  0  0  0
   26.3410    8.4880   15.1610 H   0  0  0  0  0  0  0  0  0  0  0  0
   26.0230   10.1970   15.3390 H   0  0  0  0  0  0  0  0  0  0  0  0
   25.2860    9.0520   16.4340 H   0  0  0  0  0  0  0  0  0  0  0  0
   31.6850   11.8790   16.8840 H   0  0  0  0  0  0  0  0  0  0  0  0
   31.3490   12.0080   18.6290 H   0  0  0  0  0  0  0  0  0  0  0  0
   29.4450   11.2640   16.4560 H   0  0  0  0  0  0  0  0  0  0  0  0
   31.1310    9.3890   17.2770 H   0  0  0  0  0  0  0  0  0  0  0  0
   31.4410    9.7460   18.9490 H   0  0  0  0  0  0  0  0  0  0  0  0
   36.0250   10.2970   19.3010 H   0  0  0  0  0  0  0  0  0  0  0  0
   28.7070   11.0360   19.2730 H   0  0  0  0  0  0  0  0  0  0  0  0
   29.3340    9.6780   18.2690 H   0  0  0  0  0  0  0  0  0  0  0  0
   35.3760    9.5270   15.2090 H   0  0  0  0  0  0  0  0  0  0  0  0
   32.9850    9.5430   15.6120 H   0  0  0  0  0  0  0  0  0  0  0  0
  1 27  1  0  0  0  0
  1  3  1  0  0  0  0
  2 22  1  0  0  0  0
  2 28  1  0  0  0  0
  3 30  1  0  0  0  0
  4 31  1  0  0  0  0
  5  3  2  0  0  0  0
  5 32  1  0  0  0  0
  6 25  1  0  0  0  0
  8  5  1  0  0  0  0
  9 35  1  0  0  0  0
 10 26  1  0  0  0  0
 11 12  1  0  0  0  0
 11  8  2  0  0  0  0
 12  1  2  0  0  0  0
 13 37  1  0  0  0  0
 14 40  1  0  0  0  0
 14 10  1  0  0  0  0
 15 17  1  0  0  0  0
 15 42  1  0  0  0  0
 16 43  1  6  0  0  0
 16  8  1  0  0  0  0
 16 15  1  0  0  0  0
 16 20  1  0  0  0  0
 17 45  1  0  0  0  0
 18 17  1  0  0  0  0
 18 13  2  0  0  0  0
 19 13  1  0  0  0  0
 19 46  1  0  0  0  0
 20 47  1  0  0  0  0
 21 19  2  0  0  0  0
 22  4  2  0  0  0  0
 22 21  1  0  0  0  0
 23 24  2  0  0  0  0
 23 21  1  0  0  0  0
 24 18  1  0  0  0  0
 25  9  2  0  0  0  0
 25 12  1  0  0  0  0
 26  7  2  0  0  0  0
 26 20  1  0  0  0  0
 29  2  1  0  0  0  0
 33  6  1  0  0  0  0
 34  6  1  0  0  0  0
 36 11  1  0  0  0  0
 38 14  1  0  0  0  0
 39 14  1  0  0  0  0
 41 15  1  0  0  0  0
 44 17  1  0  0  0  0
 48 20  1  0  0  0  0
 49 23  1  0  0  0  0
 50 24  1  0  0  0  0
M  END
>  <Pose>
1

>  <Score>
-8.58

$$$$
1AZ8
 OpenBabel10272317083D

 50 51  0  0  1  0  0  0  0  0999 V2000
   28.7160   15.5350   18.3820 C   0  0  0  0  0  0  0  0  0  0  0  0
   38.3230   10.4260   16.8520 N   0  0  0  0  0  0  0  0  0  0  0  0
   28.8760   14.5060   19.3020 C   0  0  0  0  0  0  0  0  0  0  0  0
   37.8700    9.6590   18.9420 N   0  0  0  0  0  0  0  0  0  0  0  0
   29.1900   13.2290   18.8370 C   0  0  0  0  0  0  0  0  0  0  0  0
   29.7620   16.8720   15.3070 N   0  0  0  0  0  0  0  0  0  0  0  0
   28.6110    9.9250   19.3890 O   0  0  0  0  0  0  0  0  0  0  0  0
   29.3440   12.9990   17.4570 C   0  0  0  0  0  0  0  0  0  0  0  0
   27.5810   16.9130   15.8460 N   0  0  0  0  0  0  0  0  0  0  0  0
   26.7720   11.0960   18.7170 O   0  0  0  0  0  0  0  0  0  0  0  0
   29.2210   14.0410   16.5580 C   0  0  0  0  0  0  0  0  0  0  0  0
   28.9160   15.3030   17.0180 C   0  0  0  0  0  0  0  0  0  0  0  0
   34.0150    9.4660   16.1320 C   0  0  0  0  0  0  0  0  0  0  0  0
   26.2070   11.3610   19.9960 C   0  0  0  0  0  0  0  0  0  0  0  0
   31.0420   11.3230   17.3880 C   0  0  0  0  0  0  0  0  0  0  0  0
   29.6700   11.7050   16.8680 C   0  0  1  0  0  0  0  0  0  0  0  0
   31.6770   10.1590   16.6570 C   0  0  0  0  0  0  0  0  0  0  0  0
   33.1530   10.1510   16.9810 C   0  0  0  0  0  0  0  0  0  0  0  0
   35.3900    9.4910   16.3780 C   0  0  0  0  0  0  0  0  0  0  0  0
   28.5990   10.6080   17.0780 C   0  0  0  0  0  0  0  0  0  0  0  0
   35.9220   10.1440   17.5090 C   0  0  0  0  0  0  0  0  0  0  0  0
   37.4220   10.0810   17.7750 C   0  0  0  0  0  0  0  0  0  0  0  0
   35.0400   10.8070   18.3790 C   0  0  0  0  0  0  0  0  0  0  0  0
   33.6700   10.8280   18.0990 C   0  0  0  0  0  0  0  0  0  0  0  0
   28.7680   16.4100   16.0280 C   0  0  0  0  0  0  0  0  0  0  0  0
   27.9930   10.4960   18.4890 C   0  0  0  0  0  0  0  0  0  0  0  0
   28.4490   16.4770   18.7080 H   0  0  0  0  0  0  0  0  0  0  0  0
   39.2820   10.4220   17.0750 H   0  0  0  0  0  0  0  0  0  0  0  0
   38.0290   10.6850   15.9490 H   0  0  0  0  0  0  0  0  0  0  0  0
   28.7630   14.6830   20.3130 H   0  0  0  0  0  0  0  0  0  0  0  0
   37.2360    9.3960   19.6470 H   0  0  0  0  0  0  0  0  0  0  0  0
   29.3110   12.4510   19.5060 H   0  0  0  0  0  0  0  0  0  0  0  0
   30.6630   16.4870   15.4060 H   0  0  0  0  0  0  0  0  0  0  0  0
   29.6080   17.6040   14.6670 H   0  0  0  0  0  0  0  0  0  0  0  0
   26.8190   16.5820   16.3760 H   0  0  0  0  0  0  0  0  0  0  0  0
   29.3570   13.8740   15.5490 H   0  0  0  0  0  0  0  0  0  0  0  0
   33.6420    8.9420   15.3240 H   0  0  0  0  0  0  0  0  0  0  0  0
   25.2540   11.8330   19.8740 H   0  0  0  0  0  0  0  0  0  0  0  0
   26.8580   12.0070   20.5470 H   0  0  0  0  0  0  0  0  0  0  0  0
   26.0840   10.4410   20.5290 H   0  0  0  0  0  0  0  0  0  0  0  0
   31.6870   12.1720   17.2930 H   0  0  0  0  0  0  0  0  0  0  0  0
   30.9130   11.0160   18.4050 H   0  0  0  0  0  0  0  0  0  0  0  0
   29.6840   11.7950   15.8020 H   0  0  0  0  0  0  0  0  0  0  0  0
   31.5370   10.2730   15.6020 H   0  0  0  0  0  0  0  0  0  0  0  0
   31.2250    9.2380   16.9620 H   0  0  0  0  0  0  0  0  0  0  0  0
   36.0300    9.0220   15.7190 H   0  0  0  0  0  0  0  0  0  0  0  0
   29.0490    9.6660   16.8420 H   0  0  0  0  0  0  0  0  0  0  0  0
   27.7840   10.8840   16.4420 H   0  0  0  0  0  0  0  0  0  0  0  0
   35.4020   11.2780   19.2220 H   0  0  0  0  0  0  0  0  0  0  0  0
   33.0310   11.3470   18.7210 H   0  0  0  0  0  0  0  0  0  0  0  0
  1 27  1  0  0  0  0
  1  3  1  0  0  0  0
  2 28  1  0  0  0  0
  2 22  1  0  0  0  0
  3 30  1  0  0  0  0
  4 31  1  0  0  0  0
  5  3  2  0  0  0  0
  5 32  1  0  0  0  0
  6 33  1  0  0  0  0
  6 25  1  0  0  0  0
  8  5  1  0  0  0  0
  9 25  2  0  0  0  0
  9 35  1  0  0  0  0
 10 14  1  0  0  0  0
 11 12  1  0  0  0  0
 11  8  2  0  0  0  0
 12  1  2  0  0  0  0
 13 19  2  0  0  0  0
 13 18  1  0  0  0  0
 14 40  1  0  0  0  0
 14 39  1  0  0  0  0
 15 42  1  0  0  0  0
 16 43  1  6  0  0  0
 16 20  1  0  0  0  0
 16 15  1  0  0  0  0
 16  8  1  0  0  0  0
 17 45  1  0  0  0  0
 17 18  1  0  0  0  0
 17 15  1  0  0  0  0
 18 24  2  0  0  0  0
 19 21  1  0  0  0  0
 20 26  1  0  0  0  0
 21 22  1  0  0  0  0
 21 23  2  0  0  0  0
 22  4  2  0  0  0  0
 23 49  1  0  0  0  0
 24 23  1  0  0  0  0
 24 50  1  0  0  0  0
 25 12  1  0  0  0  0
 26 10  1  0  0  0  0
 26  7  2  0  0  0  0
 29  2  1  0  0  0  0
 34  6  1  0  0  0  0
 36 11  1  0  0  0  0
 37 13  1  0  0  0  0
 38 14  1  0  0  0  0
 41 15  1  0  0  0  0
 44 17  1  0  0  0  0
 46 19  1  0  0  0  0
 47 20  1  0  0  0  0
 48 20  1  0  0  0  0
M  END
>  <Pose>
1

>  <Score>
-8.52

$$$$
1AZ8
 OpenBabel10272317083D

 50 51  0  0  1  0  0  0  0  0999 V2000
   29.1090   15.5880   17.5730 C   0  0  0  0  0  0  0  0  0  0  0  0
   38.3450   10.4070   16.8450 N   0  0  0  0  0  0  0  0  0  0  0  0
   28.9280   14.8340   18.7260 C   0  0  0  0  0  0  0  0  0  0  0  0
   37.8870    9.5290   18.8900 N   0  0  0  0  0  0  0  0  0  0  0  0
   29.0740   13.4480   18.6560 C   0  0  0  0  0  0  0  0  0  0  0  0
   29.4690   17.0690   15.0690 N   0  0  0  0  0  0  0  0  0  0  0  0
   26.7310   10.5390   16.4340 O   0  0  0  0  0  0  0  0  0  0  0  0
   29.4020   12.8360   17.4310 C   0  0  0  0  0  0  0  0  0  0  0  0
   30.1700   15.1720   14.0870 N   0  0  0  0  0  0  0  0  0  0  0  0
   26.1570   10.9180   18.6090 O   0  0  0  0  0  0  0  0  0  0  0  0
   29.6170   13.6020   16.3030 C   0  0  0  0  0  0  0  0  0  0  0  0
   29.4780   14.9700   16.3740 C   0  0  0  0  0  0  0  0  0  0  0  0
   34.0490    9.5520   16.0260 C   0  0  0  0  0  0  0  0  0  0  0  0
   26.4090   11.6550   19.8010 C   0  0  0  0  0  0  0  0  0  0  0  0
   31.0190   11.0870   17.5940 C   0  0  0  0  0  0  0  0  0  0  0  0
   29.5760   11.3990   17.2500 C   0  0  1  0  0  0  0  0  0  0  0  0
   31.7010   10.1570   16.6130 C   0  0  0  0  0  0  0  0  0  0  0  0
   33.1760   10.1280   16.9420 C   0  0  0  0  0  0  0  0  0  0  0  0
   35.4220    9.5640   16.2810 C   0  0  0  0  0  0  0  0  0  0  0  0
   28.5530   10.5200   18.0110 C   0  0  0  0  0  0  0  0  0  0  0  0
   35.9420   10.0900   17.4810 C   0  0  0  0  0  0  0  0  0  0  0  0
   37.4410   10.0130   17.7460 C   0  0  0  0  0  0  0  0  0  0  0  0
   35.0490   10.6410   18.4160 C   0  0  0  0  0  0  0  0  0  0  0  0
   33.6810   10.6800   18.1320 C   0  0  0  0  0  0  0  0  0  0  0  0
   29.6950   15.7780   15.1380 C   0  0  0  0  0  0  0  0  0  0  0  0
   27.0750   10.6760   17.6090 C   0  0  0  0  0  0  0  0  0  0  0  0
   28.9690   16.6100   17.6010 H   0  0  0  0  0  0  0  0  0  0  0  0
   39.2920   10.4850   17.1000 H   0  0  0  0  0  0  0  0  0  0  0  0
   38.0630   10.6200   15.9260 H   0  0  0  0  0  0  0  0  0  0  0  0
   28.6890   15.2920   19.6200 H   0  0  0  0  0  0  0  0  0  0  0  0
   37.2510    9.2280   19.5790 H   0  0  0  0  0  0  0  0  0  0  0  0
   28.9420   12.8720   19.5020 H   0  0  0  0  0  0  0  0  0  0  0  0
   29.3760   17.5070   14.1920 H   0  0  0  0  0  0  0  0  0  0  0  0
   29.3920   17.6000   15.8950 H   0  0  0  0  0  0  0  0  0  0  0  0
   30.3480   14.2040   14.1150 H   0  0  0  0  0  0  0  0  0  0  0  0
   29.8800   13.1520   15.4130 H   0  0  0  0  0  0  0  0  0  0  0  0
   33.6850    9.1200   15.1630 H   0  0  0  0  0  0  0  0  0  0  0  0
   25.5200   11.6850   20.3960 H   0  0  0  0  0  0  0  0  0  0  0  0
   26.7030   12.6520   19.5490 H   0  0  0  0  0  0  0  0  0  0  0  0
   27.1920   11.1810   20.3550 H   0  0  0  0  0  0  0  0  0  0  0  0
   31.5650   12.0080   17.6200 H   0  0  0  0  0  0  0  0  0  0  0  0
   31.0110   10.5870   18.5400 H   0  0  0  0  0  0  0  0  0  0  0  0
   29.3680   11.1420   16.2320 H   0  0  0  0  0  0  0  0  0  0  0  0
   31.5580   10.5150   15.6150 H   0  0  0  0  0  0  0  0  0  0  0  0
   31.2850    9.1740   16.6840 H   0  0  0  0  0  0  0  0  0  0  0  0
   36.0700    9.1790   15.5760 H   0  0  0  0  0  0  0  0  0  0  0  0
   28.6340   10.7550   19.0510 H   0  0  0  0  0  0  0  0  0  0  0  0
   28.8080    9.5110   17.7600 H   0  0  0  0  0  0  0  0  0  0  0  0
   35.4030   11.0180   19.3090 H   0  0  0  0  0  0  0  0  0  0  0  0
   33.0330   11.1180   18.8060 H   0  0  0  0  0  0  0  0  0  0  0  0
  1 27  1  0  0  0  0
  1  3  1  0  0  0  0
  2 28  1  0  0  0  0
  2 22  1  0  0  0  0
  3 30  1  0  0  0  0
  4 31  1  0  0  0  0
  5  3  2  0  0  0  0
  5 32  1  0  0  0  0
  6 25  1  0  0  0  0
  6 34  1  0  0  0  0
  7 26  2  0  0  0  0
  8  5  1  0  0  0  0
  9 35  1  0  0  0  0
  9 25  2  0  0  0  0
 10 14  1  0  0  0  0
 11 12  1  0  0  0  0
 11  8  2  0  0  0  0
 12  1  2  0  0  0  0
 13 19  2  0  0  0  0
 13 18  1  0  0  0  0
 14 40  1  0  0  0  0
 14 38  1  0  0  0  0
 15 41  1  0  0  0  0
 15 42  1  0  0  0  0
 16 43  1  6  0  0  0
 16  8  1  0  0  0  0
 16 15  1  0  0  0  0
 16 20  1  0  0  0  0
 17 45  1  0  0  0  0
 17 18  1  0  0  0  0
 17 15  1  0  0  0  0
 18 24  2  0  0  0  0
 19 21  1  0  0  0  0
 20 47  1  0  0  0  0
 21 22  1  0  0  0  0
 21 23  2  0  0  0  0
 22  4  2  0  0  0  0
 23 49  1  0  0  0  0
 24 23  1  0  0  0  0
 24 50  1  0  0  0  0
 25 12  1  0  0  0  0
 26 20  1  0  0  0  0
 26 10  1  0  0  0  0
 29  2  1  0  0  0  0
 33  6  1  0  0  0  0
 36 11  1  0  0  0  0
 37 13  1  0  0  0  0
 39 14  1  0  0  0  0
 44 17  1  0  0  0  0
 46 19  1  0  0  0  0
 48 20  1  0  0  0  0
M  END
>  <Pose>
1

>  <Score>
-8.47

$$$$
1AZ8
 OpenBabel10272317083D

 50 51  0  0  1  0  0  0  0  0999 V2000
   28.9980   15.5530   17.5940 C   0  0  0  0  0  0  0  0  0  0  0  0
   38.1040   10.8830   16.7920 N   0  0  0  0  0  0  0  0  0  0  0  0
   28.7730   14.8860   18.7920 C   0  0  0  0  0  0  0  0  0  0  0  0
   37.9900    9.7520   18.7590 N   0  0  0  0  0  0  0  0  0  0  0  0
   28.9320   13.5010   18.8330 C   0  0  0  0  0  0  0  0  0  0  0  0
   29.7620   16.8720   15.0810 N   0  0  0  0  0  0  0  0  0  0  0  0
   26.7290   10.6240   16.7290 O   0  0  0  0  0  0  0  0  0  0  0  0
   29.3170   12.8010   17.6740 C   0  0  0  0  0  0  0  0  0  0  0  0
   29.8950   14.8480   14.1110 N   0  0  0  0  0  0  0  0  0  0  0  0
   26.0190   10.6940   18.8950 O   0  0  0  0  0  0  0  0  0  0  0  0
   29.5750   13.4820   16.5010 C   0  0  0  0  0  0  0  0  0  0  0  0
   29.4240   14.8510   16.4620 C   0  0  0  0  0  0  0  0  0  0  0  0
   33.6840    9.8370   18.6950 C   0  0  0  0  0  0  0  0  0  0  0  0
   25.1920    9.6070   19.2980 C   0  0  0  0  0  0  0  0  0  0  0  0
   30.9410   11.0880   18.0300 C   0  0  0  0  0  0  0  0  0  0  0  0
   29.5090   11.3560   17.6090 C   0  0  1  0  0  0  0  0  0  0  0  0
   31.5340    9.8320   17.4290 C   0  0  0  0  0  0  0  0  0  0  0  0
   33.0400    9.9600   17.4690 C   0  0  0  0  0  0  0  0  0  0  0  0
   35.0790    9.8960   18.7500 C   0  0  0  0  0  0  0  0  0  0  0  0
   28.4650   10.5270   18.3960 C   0  0  0  0  0  0  0  0  0  0  0  0
   35.8500   10.1420   17.5960 C   0  0  0  0  0  0  0  0  0  0  0  0
   37.3640   10.2700   17.7190 C   0  0  0  0  0  0  0  0  0  0  0  0
   35.1880   10.2950   16.3660 C   0  0  0  0  0  0  0  0  0  0  0  0
   33.7960   10.1800   16.3050 C   0  0  0  0  0  0  0  0  0  0  0  0
   29.6880   15.5650   15.1790 C   0  0  0  0  0  0  0  0  0  0  0  0
   27.0020   10.6360   17.9290 C   0  0  0  0  0  0  0  0  0  0  0  0
   28.8500   16.5720   17.5390 H   0  0  0  0  0  0  0  0  0  0  0  0
   37.9560   10.6910   15.8380 H   0  0  0  0  0  0  0  0  0  0  0  0
   38.7990   11.5260   17.0620 H   0  0  0  0  0  0  0  0  0  0  0  0
   28.4930   15.4070   19.6380 H   0  0  0  0  0  0  0  0  0  0  0  0
   37.4770    9.2930   19.4630 H   0  0  0  0  0  0  0  0  0  0  0  0
   28.7670   12.9890   19.7140 H   0  0  0  0  0  0  0  0  0  0  0  0
   29.3980   17.3270   14.2880 H   0  0  0  0  0  0  0  0  0  0  0  0
   30.1820   17.3960   15.8010 H   0  0  0  0  0  0  0  0  0  0  0  0
   29.8450   13.8660   14.1600 H   0  0  0  0  0  0  0  0  0  0  0  0
   29.8800   12.9690   15.6590 H   0  0  0  0  0  0  0  0  0  0  0  0
   33.1360    9.7040   19.5590 H   0  0  0  0  0  0  0  0  0  0  0  0
   24.5190    9.9350   20.0630 H   0  0  0  0  0  0  0  0  0  0  0  0
   25.8030    8.8150   19.6760 H   0  0  0  0  0  0  0  0  0  0  0  0
   24.6310    9.2550   18.4570 H   0  0  0  0  0  0  0  0  0  0  0  0
   31.5410   11.9210   17.7300 H   0  0  0  0  0  0  0  0  0  0  0  0
   30.9300   10.9480   19.0910 H   0  0  0  0  0  0  0  0  0  0  0  0
   29.3420   11.0210   16.6070 H   0  0  0  0  0  0  0  0  0  0  0  0
   31.2060    9.7240   16.4160 H   0  0  0  0  0  0  0  0  0  0  0  0
   31.2200    8.9710   17.9810 H   0  0  0  0  0  0  0  0  0  0  0  0
   35.5550    9.7560   19.6550 H   0  0  0  0  0  0  0  0  0  0  0  0
   28.5040   10.8420   19.4180 H   0  0  0  0  0  0  0  0  0  0  0  0
   28.7370    9.5050   18.2340 H   0  0  0  0  0  0  0  0  0  0  0  0
   35.7290   10.4930   15.5090 H   0  0  0  0  0  0  0  0  0  0  0  0
   33.3180   10.2580   15.3930 H   0  0  0  0  0  0  0  0  0  0  0  0
  1  3  1  0  0  0  0
  2 29  1  0  0  0  0
  2 22  1  0  0  0  0
  3  5  2  0  0  0  0
  3 30  1  0  0  0  0
  4 31  1  0  0  0  0
  5 32  1  0  0  0  0
  6 25  1  0  0  0  0
  6 34  1  0  0  0  0
  7 26  2  0  0  0  0
  8  5  1  0  0  0  0
  9 35  1  0  0  0  0
  9 25  2  0  0  0  0
 10 14  1  0  0  0  0
 11  8  2  0  0  0  0
 12 11  1  0  0  0  0
 12  1  2  0  0  0  0
 13 19  1  0  0  0  0
 13 37  1  0  0  0  0
 14 39  1  0  0  0  0
 14 38  1  0  0  0  0
 15 42  1  0  0  0  0
 16 43  1  6  0  0  0
 16  8  1  0  0  0  0
 16 15  1  0  0  0  0
 16 20  1  0  0  0  0
 17 18  1  0  0  0  0
 17 45  1  0  0  0  0
 17 15  1  0  0  0  0
 18 13  2  0  0  0  0
 19 46  1  0  0  0  0
 20 47  1  0  0  0  0
 21 22  1  0  0  0  0
 21 19  2  0  0  0  0
 22  4  2  0  0  0  0
 23 21  1  0  0  0  0
 24 23  2  0  0  0  0
 24 18  1  0  0  0  0
 25 12  1  0  0  0  0
 26 20  1  0  0  0  0
 26 10  1  0  0  0  0
 27  1  1  0  0  0  0
 28  2  1  0  0  0  0
 33  6  1  0  0  0  0
 36 11  1  0  0  0  0
 40 14  1  0  0  0  0
 41 15  1  0  0  0  0
 44 17  1  0  0  0  0
 48 20  1  0  0  0  0
 49 23  1  0  0  0  0
 50 24  1  0  0  0  0
M  END
>  <Pose>
1

>  <Score>
-8.34

$$$$
1AZ8
 OpenBabel10272317083D

 50 51  0  0  1  0  0  0  0  0999 V2000
   28.8540   15.4070   17.7110 C   0  0  0  0  0  0  0  0  0  0  0  0
   38.3530   10.3640   16.7930 N   0  0  0  0  0  0  0  0  0  0  0  0
   28.6150   14.6600   18.8580 C   0  0  0  0  0  0  0  0  0  0  0  0
   38.5340    9.7450   18.9710 N   0  0  0  0  0  0  0  0  0  0  0  0
   28.9580   13.3080   18.8660 C   0  0  0  0  0  0  0  0  0  0  0  0
   30.5200   15.2060   14.3960 N   0  0  0  0  0  0  0  0  0  0  0  0
   26.6960   10.3710   18.6590 O   0  0  0  0  0  0  0  0  0  0  0  0
   29.5390   12.7220   17.7260 C   0  0  0  0  0  0  0  0  0  0  0  0
   29.1720   16.7850   15.2580 N   0  0  0  0  0  0  0  0  0  0  0  0
   27.5540    9.3700   16.7990 O   0  0  0  0  0  0  0  0  0  0  0  0
   29.8070   13.4860   16.6080 C   0  0  0  0  0  0  0  0  0  0  0  0
   29.4740   14.8220   16.6020 C   0  0  0  0  0  0  0  0  0  0  0  0
   34.0390   10.5490   17.1810 C   0  0  0  0  0  0  0  0  0  0  0  0
   26.3420    9.2030   16.0720 C   0  0  0  0  0  0  0  0  0  0  0  0
   31.4210   11.2650   17.9110 C   0  0  0  0  0  0  0  0  0  0  0  0
   29.9320   11.3200   17.6300 C   0  0  1  0  0  0  0  0  0  0  0  0
   31.9200    9.8970   18.3260 C   0  0  0  0  0  0  0  0  0  0  0  0
   33.4300    9.9080   18.2540 C   0  0  0  0  0  0  0  0  0  0  0  0
   35.4330   10.6210   17.1210 C   0  0  0  0  0  0  0  0  0  0  0  0
   29.1000   10.3510   18.5040 C   0  0  0  0  0  0  0  0  0  0  0  0
   36.2420   10.0010   18.0940 C   0  0  0  0  0  0  0  0  0  0  0  0
   37.7590   10.0450   17.9450 C   0  0  0  0  0  0  0  0  0  0  0  0
   35.6190    9.3280   19.1580 C   0  0  0  0  0  0  0  0  0  0  0  0
   34.2240    9.3060   19.2460 C   0  0  0  0  0  0  0  0  0  0  0  0
   29.7530   15.6260   15.3750 C   0  0  0  0  0  0  0  0  0  0  0  0
   27.6800   10.0190   18.0080 C   0  0  0  0  0  0  0  0  0  0  0  0
   28.5740   16.3990   17.6780 H   0  0  0  0  0  0  0  0  0  0  0  0
   39.3030   10.6200   16.7830 H   0  0  0  0  0  0  0  0  0  0  0  0
   37.8400   10.3450   15.9530 H   0  0  0  0  0  0  0  0  0  0  0  0
   28.1900   15.0990   19.6900 H   0  0  0  0  0  0  0  0  0  0  0  0
   38.1320    9.5040   19.8370 H   0  0  0  0  0  0  0  0  0  0  0  0
   28.7850   12.7370   19.7090 H   0  0  0  0  0  0  0  0  0  0  0  0
   30.5070   14.2580   14.1320 H   0  0  0  0  0  0  0  0  0  0  0  0
   31.1090   15.8400   13.9260 H   0  0  0  0  0  0  0  0  0  0  0  0
   28.5930   17.1200   15.9800 H   0  0  0  0  0  0  0  0  0  0  0  0
   30.2540   13.0590   15.7820 H   0  0  0  0  0  0  0  0  0  0  0  0
   33.4650   10.9690   16.4330 H   0  0  0  0  0  0  0  0  0  0  0  0
   26.5380    8.6620   15.1700 H   0  0  0  0  0  0  0  0  0  0  0  0
   25.9360   10.1630   15.8300 H   0  0  0  0  0  0  0  0  0  0  0  0
   25.6400    8.6590   16.6690 H   0  0  0  0  0  0  0  0  0  0  0  0
   31.9420   11.5580   17.0230 H   0  0  0  0  0  0  0  0  0  0  0  0
   31.6050   11.9240   18.7330 H   0  0  0  0  0  0  0  0  0  0  0  0
   29.7210   10.9600   16.6450 H   0  0  0  0  0  0  0  0  0  0  0  0
   31.5300    9.1520   17.6640 H   0  0  0  0  0  0  0  0  0  0  0  0
   31.5980    9.6710   19.3210 H   0  0  0  0  0  0  0  0  0  0  0  0
   35.8790   11.1400   16.3490 H   0  0  0  0  0  0  0  0  0  0  0  0
   29.0100   10.7880   19.4770 H   0  0  0  0  0  0  0  0  0  0  0  0
   29.6310    9.4220   18.4790 H   0  0  0  0  0  0  0  0  0  0  0  0
   36.1890    8.8520   19.8740 H   0  0  0  0  0  0  0  0  0  0  0  0
   33.7710    8.8410   20.0480 H   0  0  0  0  0  0  0  0  0  0  0  0
  1  3  1  0  0  0  0
  2 22  1  0  0  0  0
  3  5  2  0  0  0  0
  3 30  1  0  0  0  0
  4 31  1  0  0  0  0
  5 32  1  0  0  0  0
  6 25  1  0  0  0  0
  8  5  1  0  0  0  0
  9 25  2  0  0  0  0
  9 35  1  0  0  0  0
 10 26  1  0  0  0  0
 11  8  2  0  0  0  0
 12 11  1  0  0  0  0
 12  1  2  0  0  0  0
 13 18  1  0  0  0  0
 14 40  1  0  0  0  0
 14 10  1  0  0  0  0
 15 17  1  0  0  0  0
 15 42  1  0  0  0  0
 16 43  1  6  0  0  0
 16  8  1  0  0  0  0
 16 15  1  0  0  0  0
 16 20  1  0  0  0  0
 17 45  1  0  0  0  0
 18 17  1  0  0  0  0
 18 24  2  0  0  0  0
 19 13  2  0  0  0  0
 19 21  1  0  0  0  0
 20 47  1  0  0  0  0
 21 23  2  0  0  0  0
 22 21  1  0  0  0  0
 22  4  2  0  0  0  0
 23 24  1  0  0  0  0
 23 49  1  0  0  0  0
 24 50  1  0  0  0  0
 25 12  1  0  0  0  0
 26 20  1  0  0  0  0
 26  7  2  0  0  0  0
 27  1  1  0  0  0  0
 28  2  1  0  0  0  0
 29  2  1  0  0  0  0
 33  6  1  0  0  0  0
 34  6  1  0  0  0  0
 36 11  1  0  0  0  0
 37 13  1  0  0  0  0
 38 14  1  0  0  0  0
 39 14  1  0  0  0  0
 41 15  1  0  0  0  0
 44 17  1  0  0  0  0
 46 19  1  0  0  0  0
 48 20  1  0  0  0  0
M  END
>  <Pose>
1

>  <Score>
-8.01

$$$$
1AZ8
 OpenBabel10272317083D

 50 51  0  0  1  0  0  0  0  0999 V2000
   29.1320   14.9010   17.7730 C   0  0  0  0  0  0  0  0  0  0  0  0
   38.2190   11.0630   16.8540 N   0  0  0  0  0  0  0  0  0  0  0  0
   28.9680   13.9410   18.7630 C   0  0  0  0  0  0  0  0  0  0  0  0
   37.9640    8.8320   16.5120 N   0  0  0  0  0  0  0  0  0  0  0  0
   29.0650   12.5930   18.4180 C   0  0  0  0  0  0  0  0  0  0  0  0
   29.3430   16.8190   15.5570 N   0  0  0  0  0  0  0  0  0  0  0  0
   26.4730    9.1210   16.8370 O   0  0  0  0  0  0  0  0  0  0  0  0
   29.3290   12.2240   17.0850 C   0  0  0  0  0  0  0  0  0  0  0  0
   30.1700   15.1700   14.2730 N   0  0  0  0  0  0  0  0  0  0  0  0
   26.5820   10.8610   18.3080 O   0  0  0  0  0  0  0  0  0  0  0  0
   29.5290   13.1900   16.1200 C   0  0  0  0  0  0  0  0  0  0  0  0
   29.4390   14.5220   16.4620 C   0  0  0  0  0  0  0  0  0  0  0  0
   34.0430   10.3880   18.5680 C   0  0  0  0  0  0  0  0  0  0  0  0
   25.8090   10.5990   19.4740 C   0  0  0  0  0  0  0  0  0  0  0  0
   30.9310   10.5600   16.4820 C   0  0  0  0  0  0  0  0  0  0  0  0
   29.4480   10.8460   16.6200 C   0  0  1  0  0  0  0  0  0  0  0  0
   31.6710   10.4890   17.8010 C   0  0  0  0  0  0  0  0  0  0  0  0
   33.1480   10.3700   17.5030 C   0  0  0  0  0  0  0  0  0  0  0  0
   35.4080   10.2230   18.3230 C   0  0  0  0  0  0  0  0  0  0  0  0
   28.6930    9.8030   17.4790 C   0  0  0  0  0  0  0  0  0  0  0  0
   35.9100   10.1030   17.0110 C   0  0  0  0  0  0  0  0  0  0  0  0
   37.4160    9.9980   16.7910 C   0  0  0  0  0  0  0  0  0  0  0  0
   35.0010   10.1160   15.9400 C   0  0  0  0  0  0  0  0  0  0  0  0
   33.6300   10.2250   16.1910 C   0  0  0  0  0  0  0  0  0  0  0  0
   29.6380   15.5500   15.3990 C   0  0  0  0  0  0  0  0  0  0  0  0
   27.1560    9.9050   17.4960 C   0  0  0  0  0  0  0  0  0  0  0  0
   29.0280   15.9010   18.0060 H   0  0  0  0  0  0  0  0  0  0  0  0
   39.0500   11.0220   17.3820 H   0  0  0  0  0  0  0  0  0  0  0  0
   37.9820   11.8880   16.3730 H   0  0  0  0  0  0  0  0  0  0  0  0
   28.7760   14.2200   19.7380 H   0  0  0  0  0  0  0  0  0  0  0  0
   37.4030    8.0250   16.4570 H   0  0  0  0  0  0  0  0  0  0  0  0
   28.9440   11.8650   19.1400 H   0  0  0  0  0  0  0  0  0  0  0  0
   28.4230   17.0860   15.7840 H   0  0  0  0  0  0  0  0  0  0  0  0
   30.0420   17.5040   15.4490 H   0  0  0  0  0  0  0  0  0  0  0  0
   30.4000   14.2230   14.1320 H   0  0  0  0  0  0  0  0  0  0  0  0
   29.7450   12.9170   15.1490 H   0  0  0  0  0  0  0  0  0  0  0  0
   33.7010   10.5230   19.5320 H   0  0  0  0  0  0  0  0  0  0  0  0
   25.4910   11.5240   19.9070 H   0  0  0  0  0  0  0  0  0  0  0  0
   26.4040   10.0600   20.1830 H   0  0  0  0  0  0  0  0  0  0  0  0
   24.9530   10.0140   19.2110 H   0  0  0  0  0  0  0  0  0  0  0  0
   31.0470    9.6220   15.9800 H   0  0  0  0  0  0  0  0  0  0  0  0
   31.3540   11.3760   15.9340 H   0  0  0  0  0  0  0  0  0  0  0  0
   28.9560   10.7480   15.6750 H   0  0  0  0  0  0  0  0  0  0  0  0
   31.3420    9.6350   18.3560 H   0  0  0  0  0  0  0  0  0  0  0  0
   31.4790   11.3670   18.3820 H   0  0  0  0  0  0  0  0  0  0  0  0
   36.0630   10.1890   19.1200 H   0  0  0  0  0  0  0  0  0  0  0  0
   29.0360    9.9030   18.4870 H   0  0  0  0  0  0  0  0  0  0  0  0
   28.9070    8.8570   17.0260 H   0  0  0  0  0  0  0  0  0  0  0  0
   35.3450   10.0460   14.9690 H   0  0  0  0  0  0  0  0  0  0  0  0
   32.9640   10.1980   15.4030 H   0  0  0  0  0  0  0  0  0  0  0  0
  1 27  1  0  0  0  0
  1  3  1  0  0  0  0
  2 28  1  0  0  0  0
  3 30  1  0  0  0  0
  4 22  2  0  0  0  0
  5  3  2  0  0  0  0
  5 32  1  0  0  0  0
  6 33  1  0  0  0  0
  7 26  2  0  0  0  0
  8  5  1  0  0  0  0
  9 25  2  0  0  0  0
 10 14  1  0  0  0  0
 11 12  1  0  0  0  0
 11  8  2  0  0  0  0
 12  1  2  0  0  0  0
 13 37  1  0  0  0  0
 14 38  1  0  0  0  0
 14 39  1  0  0  0  0
 15 16  1  0  0  0  0
 15 17  1  0  0  0  0
 16 43  1  6  0  0  0
 16  8  1  0  0  0  0
 16 20  1  0  0  0  0
 17 44  1  0  0  0  0
 17 45  1  0  0  0  0
 18 17  1  0  0  0  0
 18 13  2  0  0  0  0
 19 13  1  0  0  0  0
 19 46  1  0  0  0  0
 20 26  1  0  0  0  0
 20 47  1  0  0  0  0
 21 19  2  0  0  0  0
 22  2  1  0  0  0  0
 22 21  1  0  0  0  0
 23 24  2  0  0  0  0
 23 21  1  0  0  0  0
 24 18  1  0  0  0  0
 25  6  1  0  0  0  0
 25 12  1  0  0  0  0
 26 10  1  0  0  0  0
 29  2  1  0  0  0  0
 31  4  1  0  0  0  0
 34  6  1  0  0  0  0
 35  9  1  0  0  0  0
 36 11  1  0  0  0  0
 40 14  1  0  0  0  0
 41 15  1  0  0  0  0
 42 15  1  0  0  0  0
 48 20  1  0  0  0  0
 49 23  1  0  0  0  0
 50 24  1  0  0  0  0
M  END
>  <Pose>
2

>  <Score>
-7.95

$$$$
1AZ8
 OpenBabel10272317083D

 50 51  0  0  1  0  0  0  0  0999 V2000
   28.7680   15.9340   17.6470 C   0  0  0  0  0  0  0  0  0  0  0  0
   21.7210    6.9880   15.9900 N   0  0  0  0  0  0  0  0  0  0  0  0
   28.4190   15.3580   18.8630 C   0  0  0  0  0  0  0  0  0  0  0  0
   21.6560    8.9430   14.8350 N   0  0  0  0  0  0  0  0  0  0  0  0
   28.4990   13.9720   18.9990 C   0  0  0  0  0  0  0  0  0  0  0  0
   29.5280   17.0410   15.0420 N   0  0  0  0  0  0  0  0  0  0  0  0
   30.8360    9.6310   19.1410 O   0  0  0  0  0  0  0  0  0  0  0  0
   28.9280   13.1810   17.9160 C   0  0  0  0  0  0  0  0  0  0  0  0
   30.1430   14.9820   14.3820 N   0  0  0  0  0  0  0  0  0  0  0  0
   32.6510   10.6110   18.1690 O   0  0  0  0  0  0  0  0  0  0  0  0
   29.3080   13.7720   16.7280 C   0  0  0  0  0  0  0  0  0  0  0  0
   29.2360   15.1410   16.5950 C   0  0  0  0  0  0  0  0  0  0  0  0
   25.9100    9.4600   15.5980 C   0  0  0  0  0  0  0  0  0  0  0  0
   33.4650   10.0550   17.1410 C   0  0  0  0  0  0  0  0  0  0  0  0
   27.7900   11.1720   17.3090 C   0  0  0  0  0  0  0  0  0  0  0  0
   29.0450   11.7270   17.9540 C   0  0  1  0  0  0  0  0  0  0  0  0
   27.7120    9.6600   17.3120 C   0  0  0  0  0  0  0  0  0  0  0  0
   26.3090    9.2620   16.9160 C   0  0  0  0  0  0  0  0  0  0  0  0
   24.6380    9.0490   15.1940 C   0  0  0  0  0  0  0  0  0  0  0  0
   30.3540   11.1650   17.3480 C   0  0  0  0  0  0  0  0  0  0  0  0
   23.7200    8.4950   16.1090 C   0  0  0  0  0  0  0  0  0  0  0  0
   22.3170    8.1290   15.6350 C   0  0  0  0  0  0  0  0  0  0  0  0
   24.1200    8.3270   17.4450 C   0  0  0  0  0  0  0  0  0  0  0  0
   25.4140    8.6880   17.8340 C   0  0  0  0  0  0  0  0  0  0  0  0
   29.6320   15.7570   15.2950 C   0  0  0  0  0  0  0  0  0  0  0  0
   31.2940   10.4150   18.3090 C   0  0  0  0  0  0  0  0  0  0  0  0
   28.6800   16.9540   17.5200 H   0  0  0  0  0  0  0  0  0  0  0  0
   22.2510    6.2560   16.3790 H   0  0  0  0  0  0  0  0  0  0  0  0
   20.7510    6.8790   15.8620 H   0  0  0  0  0  0  0  0  0  0  0  0
   28.1070   15.9460   19.6510 H   0  0  0  0  0  0  0  0  0  0  0  0
   22.0630    9.7940   14.5520 H   0  0  0  0  0  0  0  0  0  0  0  0
   28.2420   13.5260   19.8940 H   0  0  0  0  0  0  0  0  0  0  0  0
   29.7970   17.7000   15.7230 H   0  0  0  0  0  0  0  0  0  0  0  0
   29.1800   17.3450   14.1730 H   0  0  0  0  0  0  0  0  0  0  0  0
   30.2310   14.0160   14.5480 H   0  0  0  0  0  0  0  0  0  0  0  0
   29.6450   13.1910   15.9440 H   0  0  0  0  0  0  0  0  0  0  0  0
   26.5500    9.9070   14.9230 H   0  0  0  0  0  0  0  0  0  0  0  0
   34.4780   10.3730   17.2770 H   0  0  0  0  0  0  0  0  0  0  0  0
   33.1120   10.3870   16.1880 H   0  0  0  0  0  0  0  0  0  0  0  0
   33.4180    8.9870   17.1870 H   0  0  0  0  0  0  0  0  0  0  0  0
   26.9420   11.5530   17.8400 H   0  0  0  0  0  0  0  0  0  0  0  0
   27.8070   11.4790   16.2840 H   0  0  0  0  0  0  0  0  0  0  0  0
   29.1200   11.4040   18.9710 H   0  0  0  0  0  0  0  0  0  0  0  0
   27.9320    9.2870   18.2900 H   0  0  0  0  0  0  0  0  0  0  0  0
   28.4220    9.2500   16.6240 H   0  0  0  0  0  0  0  0  0  0  0  0
   24.3640    9.1530   14.2040 H   0  0  0  0  0  0  0  0  0  0  0  0
   30.9000   11.9890   16.9370 H   0  0  0  0  0  0  0  0  0  0  0  0
   30.0420   10.4350   16.6310 H   0  0  0  0  0  0  0  0  0  0  0  0
   23.4610    7.9390   18.1380 H   0  0  0  0  0  0  0  0  0  0  0  0
   25.7150    8.5300   18.8090 H   0  0  0  0  0  0  0  0  0  0  0  0
  1  3  1  0  0  0  0
  2 28  1  0  0  0  0
  3  5  2  0  0  0  0
  3 30  1  0  0  0  0
  4 22  2  0  0  0  0
  5 32  1  0  0  0  0
  6 25  1  0  0  0  0
  6 33  1  0  0  0  0
  8 16  1  0  0  0  0
  8  5  1  0  0  0  0
  9 35  1  0  0  0  0
  9 25  2  0  0  0  0
 10 26  1  0  0  0  0
 11  8  2  0  0  0  0
 12 11  1  0  0  0  0
 12  1  2  0  0  0  0
 13 18  1  0  0  0  0
 14 40  1  0  0  0  0
 14 38  1  0  0  0  0
 14 10  1  0  0  0  0
 15 17  1  0  0  0  0
 15 41  1  0  0  0  0
 15 16  1  0  0  0  0
 16 43  1  1  0  0  0
 17 44  1  0  0  0  0
 18 17  1  0  0  0  0
 18 24  2  0  0  0  0
 19 13  2  0  0  0  0
 19 21  1  0  0  0  0
 20 16  1  0  0  0  0
 20 26  1  0  0  0  0
 21 23  2  0  0  0  0
 22  2  1  0  0  0  0
 22 21  1  0  0  0  0
 23 24  1  0  0  0  0
 23 49  1  0  0  0  0
 24 50  1  0  0  0  0
 25 12  1  0  0  0  0
 26  7  2  0  0  0  0
 27  1  1  0  0  0  0
 29  2  1  0  0  0  0
 31  4  1  0  0  0  0
 34  6  1  0  0  0  0
 36 11  1  0  0  0  0
 37 13  1  0  0  0  0
 39 14  1  0  0  0  0
 42 15  1  0  0  0  0
 45 17  1  0  0  0  0
 46 19  1  0  0  0  0
 47 20  1  0  0  0  0
 48 20  1  0  0  0  0
M  END
>  <Pose>
1

>  <Score>
-7.64

$$$$
1AZ8
 OpenBabel10272317083D

 50 51  0  0  1  0  0  0  0  0999 V2000
   34.5810    9.3550   15.8970 C   0  0  0  0  0  0  0  0  0  0  0  0
   29.5730   17.0780   15.2710 N   0  0  0  0  0  0  0  0  0  0  0  0
   33.4120    8.6680   15.5900 C   0  0  0  0  0  0  0  0  0  0  0  0
   27.3770   16.9040   15.8260 N   0  0  0  0  0  0  0  0  0  0  0  0
   32.3340    8.7440   16.4720 C   0  0  0  0  0  0  0  0  0  0  0  0
   36.5550   11.6270   16.4920 N   0  0  0  0  0  0  0  0  0  0  0  0
   30.3810    7.4980   21.3830 O   0  0  0  0  0  0  0  0  0  0  0  0
   32.4390    9.5080   17.6490 C   0  0  0  0  0  0  0  0  0  0  0  0
   36.3320   10.8750   18.5980 N   0  0  0  0  0  0  0  0  0  0  0  0
   32.5690    7.8540   20.8450 O   0  0  0  0  0  0  0  0  0  0  0  0
   33.5920   10.2170   17.9210 C   0  0  0  0  0  0  0  0  0  0  0  0
   34.6550   10.1470   17.0470 C   0  0  0  0  0  0  0  0  0  0  0  0
   29.5130   12.8220   16.8470 C   0  0  0  0  0  0  0  0  0  0  0  0
   33.5540    7.1140   20.1320 C   0  0  0  0  0  0  0  0  0  0  0  0
   30.3390   10.5780   18.0280 C   0  0  0  0  0  0  0  0  0  0  0  0
   31.3740    9.6520   18.6360 C   0  0  1  0  0  0  0  0  0  0  0  0
   29.7690   11.5890   19.0010 C   0  0  0  0  0  0  0  0  0  0  0  0
   29.4720   12.8590   18.2360 C   0  0  0  0  0  0  0  0  0  0  0  0
   29.1870   13.9680   16.1170 C   0  0  0  0  0  0  0  0  0  0  0  0
   30.7850    8.3180   19.1540 C   0  0  0  0  0  0  0  0  0  0  0  0
   28.8800   15.1850   16.7590 C   0  0  0  0  0  0  0  0  0  0  0  0
   28.6040   16.4270   15.9180 C   0  0  0  0  0  0  0  0  0  0  0  0
   28.8730   15.2210   18.1640 C   0  0  0  0  0  0  0  0  0  0  0  0
   29.1430   14.0580   18.8910 C   0  0  0  0  0  0  0  0  0  0  0  0
   35.9000   10.9050   17.3700 C   0  0  0  0  0  0  0  0  0  0  0  0
   31.2200    7.8710   20.5620 C   0  0  0  0  0  0  0  0  0  0  0  0
   35.3990    9.2800   15.2730 H   0  0  0  0  0  0  0  0  0  0  0  0
   29.5870   17.0870   14.2860 H   0  0  0  0  0  0  0  0  0  0  0  0
   30.2730   17.5490   15.7770 H   0  0  0  0  0  0  0  0  0  0  0  0
   33.3440    8.1110   14.7240 H   0  0  0  0  0  0  0  0  0  0  0  0
   26.6370   16.4500   16.2900 H   0  0  0  0  0  0  0  0  0  0  0  0
   31.4590    8.2390   16.2610 H   0  0  0  0  0  0  0  0  0  0  0  0
   36.7770   11.2480   15.6110 H   0  0  0  0  0  0  0  0  0  0  0  0
   36.8230   12.5480   16.7140 H   0  0  0  0  0  0  0  0  0  0  0  0
   35.8580   10.3400   19.2750 H   0  0  0  0  0  0  0  0  0  0  0  0
   33.6580   10.7960   18.7730 H   0  0  0  0  0  0  0  0  0  0  0  0
   29.7810   11.9540   16.3580 H   0  0  0  0  0  0  0  0  0  0  0  0
   34.5160    7.2880   20.5680 H   0  0  0  0  0  0  0  0  0  0  0  0
   33.5650    7.4280   19.1090 H   0  0  0  0  0  0  0  0  0  0  0  0
   33.3230    6.0710   20.1820 H   0  0  0  0  0  0  0  0  0  0  0  0
   30.7960   11.1100   17.2200 H   0  0  0  0  0  0  0  0  0  0  0  0
   29.5240    9.9640   17.7080 H   0  0  0  0  0  0  0  0  0  0  0  0
   31.7770   10.0740   19.5330 H   0  0  0  0  0  0  0  0  0  0  0  0
   30.4800   11.7890   19.7750 H   0  0  0  0  0  0  0  0  0  0  0  0
   28.8750   11.2090   19.4500 H   0  0  0  0  0  0  0  0  0  0  0  0
   29.1710   13.9230   15.0860 H   0  0  0  0  0  0  0  0  0  0  0  0
   31.0700    7.5490   18.4660 H   0  0  0  0  0  0  0  0  0  0  0  0
   29.7300    8.4840   19.2240 H   0  0  0  0  0  0  0  0  0  0  0  0
   28.6670   16.1040   18.6570 H   0  0  0  0  0  0  0  0  0  0  0  0
   29.1010   14.0810   19.9220 H   0  0  0  0  0  0  0  0  0  0  0  0
  1 12  1  0  0  0  0
  2 29  1  0  0  0  0
  2 22  1  0  0  0  0
  3  1  2  0  0  0  0
  3  5  1  0  0  0  0
  4 22  2  0  0  0  0
  4 31  1  0  0  0  0
  5  8  2  0  0  0  0
  6 34  1  0  0  0  0
  6 25  1  0  0  0  0
  8 11  1  0  0  0  0
  8 16  1  0  0  0  0
  9 35  1  0  0  0  0
 11 36  1  0  0  0  0
 12 25  1  0  0  0  0
 12 11  2  0  0  0  0
 13 18  1  0  0  0  0
 14 40  1  0  0  0  0
 14 38  1  0  0  0  0
 14 10  1  0  0  0  0
 15 16  1  0  0  0  0
 15 17  1  0  0  0  0
 16 20  1  0  0  0  0
 16 43  1  1  0  0  0
 17 45  1  0  0  0  0
 17 44  1  0  0  0  0
 18 24  2  0  0  0  0
 18 17  1  0  0  0  0
 19 21  1  0  0  0  0
 19 13  2  0  0  0  0
 20 48  1  0  0  0  0
 20 26  1  0  0  0  0
 21 23  2  0  0  0  0
 22 21  1  0  0  0  0
 23 49  1  0  0  0  0
 23 24  1  0  0  0  0
 24 50  1  0  0  0  0
 25  9  2  0  0  0  0
 26 10  1  0  0  0  0
 26  7  2  0  0  0  0
 27  1  1  0  0  0  0
 28  2  1  0  0  0  0
 30  3  1  0  0  0  0
 32  5  1  0  0  0  0
 33  6  1  0  0  0  0
 37 13  1  0  0  0  0
 39 14  1  0  0  0  0
 41 15  1  0  0  0  0
 42 15  1  0  0  0  0
 46 19  1  0  0  0  0
 47 20  1  0  0  0  0
M  END
>  <Pose>
1

>  <Score>
-7.64

$$$$
1AZ8
 OpenBabel10272317083D

 50 51  0  0  1  0  0  0  0  0999 V2000
   35.5290    9.1310   18.5490 C   0  0  0  0  0  0  0  0  0  0  0  0
   27.0390   17.2880   16.0530 N   0  0  0  0  0  0  0  0  0  0  0  0
   34.5840    8.3650   19.2220 C   0  0  0  0  0  0  0  0  0  0  0  0
   29.1450   17.4490   15.2170 N   0  0  0  0  0  0  0  0  0  0  0  0
   33.2300    8.6090   18.9910 C   0  0  0  0  0  0  0  0  0  0  0  0
   35.8590   11.6000   15.8010 N   0  0  0  0  0  0  0  0  0  0  0  0
   29.2480    7.7210   16.4550 O   0  0  0  0  0  0  0  0  0  0  0  0
   32.8400    9.6160   18.0870 C   0  0  0  0  0  0  0  0  0  0  0  0
   37.3510   10.9530   17.3530 N   0  0  0  0  0  0  0  0  0  0  0  0
   28.4930    9.8640   16.2510 O   0  0  0  0  0  0  0  0  0  0  0  0
   33.7910   10.3410   17.3970 C   0  0  0  0  0  0  0  0  0  0  0  0
   35.1280   10.0960   17.6210 C   0  0  0  0  0  0  0  0  0  0  0  0
   30.0570   13.4840   16.7040 C   0  0  0  0  0  0  0  0  0  0  0  0
   27.7110   10.3640   17.3310 C   0  0  0  0  0  0  0  0  0  0  0  0
   31.3240   11.4540   17.9340 C   0  0  0  0  0  0  0  0  0  0  0  0
   31.4550    9.9510   17.7760 C   0  0  1  0  0  0  0  0  0  0  0  0
   30.0510   11.8920   18.6260 C   0  0  0  0  0  0  0  0  0  0  0  0
   29.5800   13.1720   17.9730 C   0  0  0  0  0  0  0  0  0  0  0  0
   29.5940   14.6320   16.0570 C   0  0  0  0  0  0  0  0  0  0  0  0
   30.9510    9.4250   16.4100 C   0  0  0  0  0  0  0  0  0  0  0  0
   28.6980   15.5200   16.6870 C   0  0  0  0  0  0  0  0  0  0  0  0
   28.2780   16.7970   15.9680 C   0  0  0  0  0  0  0  0  0  0  0  0
   28.2450   15.2120   17.9810 C   0  0  0  0  0  0  0  0  0  0  0  0
   28.6670   14.0340   18.6040 C   0  0  0  0  0  0  0  0  0  0  0  0
   36.1390   10.9050   16.8790 C   0  0  0  0  0  0  0  0  0  0  0  0
   29.4960    8.9240   16.3570 C   0  0  0  0  0  0  0  0  0  0  0  0
   36.5340    8.9860   18.7370 H   0  0  0  0  0  0  0  0  0  0  0  0
   26.3010   16.8440   15.5770 H   0  0  0  0  0  0  0  0  0  0  0  0
   26.8650   18.0920   16.5920 H   0  0  0  0  0  0  0  0  0  0  0  0
   34.8790    7.6280   19.8820 H   0  0  0  0  0  0  0  0  0  0  0  0
   30.0680   17.1180   15.1300 H   0  0  0  0  0  0  0  0  0  0  0  0
   32.5140    8.0520   19.4830 H   0  0  0  0  0  0  0  0  0  0  0  0
   36.5760   11.8400   15.1700 H   0  0  0  0  0  0  0  0  0  0  0  0
   34.9320   11.8810   15.6240 H   0  0  0  0  0  0  0  0  0  0  0  0
   37.5840   10.4410   18.1610 H   0  0  0  0  0  0  0  0  0  0  0  0
   33.5020   11.0620   16.7170 H   0  0  0  0  0  0  0  0  0  0  0  0
   30.7490   12.8720   16.2450 H   0  0  0  0  0  0  0  0  0  0  0  0
   27.0090   11.0810   16.9600 H   0  0  0  0  0  0  0  0  0  0  0  0
   28.3520   10.8300   18.0490 H   0  0  0  0  0  0  0  0  0  0  0  0
   27.1840    9.5560   17.7940 H   0  0  0  0  0  0  0  0  0  0  0  0
   32.1570   11.8050   18.5070 H   0  0  0  0  0  0  0  0  0  0  0  0
   31.2990   11.8680   16.9470 H   0  0  0  0  0  0  0  0  0  0  0  0
   30.8060    9.4430   18.4570 H   0  0  0  0  0  0  0  0  0  0  0  0
   30.2430   12.0640   19.6640 H   0  0  0  0  0  0  0  0  0  0  0  0
   29.3010   11.1340   18.5390 H   0  0  0  0  0  0  0  0  0  0  0  0
   29.9140   14.8340   15.0970 H   0  0  0  0  0  0  0  0  0  0  0  0
   31.5850    8.6130   16.1210 H   0  0  0  0  0  0  0  0  0  0  0  0
   30.9820   10.2700   15.7540 H   0  0  0  0  0  0  0  0  0  0  0  0
   27.6020   15.8540   18.4700 H   0  0  0  0  0  0  0  0  0  0  0  0
   28.3040   13.7940   19.5400 H   0  0  0  0  0  0  0  0  0  0  0  0
  1 27  1  0  0  0  0
  1  3  1  0  0  0  0
  2 29  1  0  0  0  0
  3 30  1  0  0  0  0
  4 22  2  0  0  0  0
  5  3  2  0  0  0  0
  5 32  1  0  0  0  0
  6 25  1  0  0  0  0
  8  5  1  0  0  0  0
  9 35  1  0  0  0  0
 10 26  1  0  0  0  0
 10 14  1  0  0  0  0
 11 12  1  0  0  0  0
 11  8  2  0  0  0  0
 12  1  2  0  0  0  0
 13 18  1  0  0  0  0
 14 40  1  0  0  0  0
 14 39  1  0  0  0  0
 15 41  1  0  0  0  0
 15 17  1  0  0  0  0
 16 15  1  0  0  0  0
 16  8  1  0  0  0  0
 16 43  1  1  0  0  0
 17 44  1  0  0  0  0
 18 24  2  0  0  0  0
 18 17  1  0  0  0  0
 19 21  1  0  0  0  0
 19 13  2  0  0  0  0
 20 16  1  0  0  0  0
 21 23  2  0  0  0  0
 22  2  1  0  0  0  0
 22 21  1  0  0  0  0
 23 49  1  0  0  0  0
 23 24  1  0  0  0  0
 24 50  1  0  0  0  0
 25  9  2  0  0  0  0
 25 12  1  0  0  0  0
 26 20  1  0  0  0  0
 26  7  2  0  0  0  0
 28  2  1  0  0  0  0
 31  4  1  0  0  0  0
 33  6  1  0  0  0  0
 34  6  1  0  0  0  0
 36 11  1  0  0  0  0
 37 13  1  0  0  0  0
 38 14  1  0  0  0  0
 42 15  1  0  0  0  0
 45 17  1  0  0  0  0
 46 19  1  0  0  0  0
 47 20  1  0  0  0  0
 48 20  1  0  0  0  0
M  END
>  <Pose>
1

>  <Score>
-7.50

$$$$
1AZ8
 OpenBabel10272317083D

 50 51  0  0  1  0  0  0  0  0999 V2000
   29.1380   15.6670   17.8740 C   0  0  0  0  0  0  0  0  0  0  0  0
   37.6590   10.3310   16.9310 N   0  0  0  0  0  0  0  0  0  0  0  0
   28.9110   15.0000   19.0720 C   0  0  0  0  0  0  0  0  0  0  0  0
   37.2350    9.1610   18.8310 N   0  0  0  0  0  0  0  0  0  0  0  0
   28.8630   13.6060   19.0690 C   0  0  0  0  0  0  0  0  0  0  0  0
   29.5460   16.9620   15.2740 N   0  0  0  0  0  0  0  0  0  0  0  0
   25.5670   10.8230   18.8480 O   0  0  0  0  0  0  0  0  0  0  0  0
   29.0440   12.8970   17.8660 C   0  0  0  0  0  0  0  0  0  0  0  0
   29.9980   14.9490   14.3830 N   0  0  0  0  0  0  0  0  0  0  0  0
   26.3790   10.3880   16.7610 O   0  0  0  0  0  0  0  0  0  0  0  0
   29.3080   13.5720   16.6910 C   0  0  0  0  0  0  0  0  0  0  0  0
   29.3620   14.9490   16.6950 C   0  0  0  0  0  0  0  0  0  0  0  0
   33.1430   11.0170   17.8080 C   0  0  0  0  0  0  0  0  0  0  0  0
   26.2200    9.1010   16.1740 C   0  0  0  0  0  0  0  0  0  0  0  0
   30.4300   10.9560   17.9760 C   0  0  0  0  0  0  0  0  0  0  0  0
   29.0110   11.4430   17.7540 C   0  0  1  0  0  0  0  0  0  0  0  0
   31.0120   10.1980   16.8020 C   0  0  0  0  0  0  0  0  0  0  0  0
   32.5020   10.0660   17.0220 C   0  0  0  0  0  0  0  0  0  0  0  0
   34.5090   10.8850   18.0720 C   0  0  0  0  0  0  0  0  0  0  0  0
   27.9680   10.7460   18.6600 C   0  0  0  0  0  0  0  0  0  0  0  0
   35.2700    9.8420   17.5050 C   0  0  0  0  0  0  0  0  0  0  0  0
   36.7710    9.7830   17.7640 C   0  0  0  0  0  0  0  0  0  0  0  0
   34.6190    8.9040   16.6870 C   0  0  0  0  0  0  0  0  0  0  0  0
   33.2410    9.0060   16.4700 C   0  0  0  0  0  0  0  0  0  0  0  0
   29.6280   15.6590   15.4100 C   0  0  0  0  0  0  0  0  0  0  0  0
   26.5340   10.6400   18.1080 C   0  0  0  0  0  0  0  0  0  0  0  0
   29.1410   16.6990   17.8540 H   0  0  0  0  0  0  0  0  0  0  0  0
   37.4750   10.3590   15.9650 H   0  0  0  0  0  0  0  0  0  0  0  0
   38.4980   10.7080   17.2840 H   0  0  0  0  0  0  0  0  0  0  0  0
   28.7810   15.5280   19.9490 H   0  0  0  0  0  0  0  0  0  0  0  0
   36.6100    8.7440   19.4680 H   0  0  0  0  0  0  0  0  0  0  0  0
   28.6940   13.0940   19.9490 H   0  0  0  0  0  0  0  0  0  0  0  0
   29.3930   17.5310   16.0640 H   0  0  0  0  0  0  0  0  0  0  0  0
   29.6370   17.3710   14.3830 H   0  0  0  0  0  0  0  0  0  0  0  0
   30.0670   13.9700   14.4610 H   0  0  0  0  0  0  0  0  0  0  0  0
   29.4640   13.0490   15.8160 H   0  0  0  0  0  0  0  0  0  0  0  0
   32.6150   11.8140   18.1940 H   0  0  0  0  0  0  0  0  0  0  0  0
   26.1210    9.2020   15.1130 H   0  0  0  0  0  0  0  0  0  0  0  0
   25.3440    8.6330   16.5710 H   0  0  0  0  0  0  0  0  0  0  0  0
   27.0770    8.4990   16.3960 H   0  0  0  0  0  0  0  0  0  0  0  0
   31.0510   11.8060   18.1690 H   0  0  0  0  0  0  0  0  0  0  0  0
   30.3980   10.2740   18.7990 H   0  0  0  0  0  0  0  0  0  0  0  0
   28.6680   11.1710   16.7780 H   0  0  0  0  0  0  0  0  0  0  0  0
   30.8250   10.7340   15.8950 H   0  0  0  0  0  0  0  0  0  0  0  0
   30.5610    9.2310   16.7240 H   0  0  0  0  0  0  0  0  0  0  0  0
   34.9710   11.5650   18.6950 H   0  0  0  0  0  0  0  0  0  0  0  0
   27.9210   11.2910   19.5800 H   0  0  0  0  0  0  0  0  0  0  0  0
   28.3080    9.7360   18.7560 H   0  0  0  0  0  0  0  0  0  0  0  0
   35.1560    8.1410   16.2470 H   0  0  0  0  0  0  0  0  0  0  0  0
   32.7620    8.2940   15.8970 H   0  0  0  0  0  0  0  0  0  0  0  0
  1  3  1  0  0  0  0
  2 29  1  0  0  0  0
  2 22  1  0  0  0  0
  3 30  1  0  0  0  0
  4 31  1  0  0  0  0
  5  3  2  0  0  0  0
  5 32  1  0  0  0  0
  6 25  1  0  0  0  0
  6 33  1  0  0  0  0
  8  5  1  0  0  0  0
  9 35  1  0  0  0  0
  9 25  2  0  0  0  0
 10 26  1  0  0  0  0
 11 12  1  0  0  0  0
 11  8  2  0  0  0  0
 12  1  2  0  0  0  0
 13 19  1  0  0  0  0
 13 37  1  0  0  0  0
 14 40  1  0  0  0  0
 14 39  1  0  0  0  0
 14 10  1  0  0  0  0
 15 41  1  0  0  0  0
 15 42  1  0  0  0  0
 16 43  1  6  0  0  0
 16  8  1  0  0  0  0
 16 15  1  0  0  0  0
 16 20  1  0  0  0  0
 17 18  1  0  0  0  0
 17 15  1  0  0  0  0
 18 13  2  0  0  0  0
 19 46  1  0  0  0  0
 20 48  1  0  0  0  0
 20 47  1  0  0  0  0
 21 22  1  0  0  0  0
 21 19  2  0  0  0  0
 22  4  2  0  0  0  0
 23 21  1  0  0  0  0
 24 23  2  0  0  0  0
 24 18  1  0  0  0  0
 25 12  1  0  0  0  0
 26 20  1  0  0  0  0
 26  7  2  0  0  0  0
 27  1  1  0  0  0  0
 28  2  1  0  0  0  0
 34  6  1  0  0  0  0
 36 11  1  0  0  0  0
 38 14  1  0  0  0  0
 44 17  1  0  0  0  0
 45 17  1  0  0  0  0
 49 23  1  0  0  0  0
 50 24  1  0  0  0  0
M  END
>  <Pose>
1

>  <Score>
-7.45

$$$$
1AZ8
 OpenBabel10272317083D

 50 51  0  0  1  0  0  0  0  0999 V2000
   28.9700   15.4620   18.1520 C   0  0  0  0  0  0  0  0  0  0  0  0
   36.7510   11.4870   16.6310 N   0  0  0  0  0  0  0  0  0  0  0  0
   28.7000   14.8350   19.3620 C   0  0  0  0  0  0  0  0  0  0  0  0
   36.6720   10.4400   18.6450 N   0  0  0  0  0  0  0  0  0  0  0  0
   28.4680   13.4600   19.3720 C   0  0  0  0  0  0  0  0  0  0  0  0
   30.5730   15.4350   15.1580 N   0  0  0  0  0  0  0  0  0  0  0  0
   26.4790   11.8280   20.9750 O   0  0  0  0  0  0  0  0  0  0  0  0
   28.5110   12.7290   18.1690 C   0  0  0  0  0  0  0  0  0  0  0  0
   28.3800   15.9020   14.9990 N   0  0  0  0  0  0  0  0  0  0  0  0
   27.9770   10.1160   21.1450 O   0  0  0  0  0  0  0  0  0  0  0  0
   28.8200   13.3600   16.9800 C   0  0  0  0  0  0  0  0  0  0  0  0
   29.0550   14.7170   16.9710 C   0  0  0  0  0  0  0  0  0  0  0  0
   32.5540    9.3280   18.0010 C   0  0  0  0  0  0  0  0  0  0  0  0
   28.0960   10.0920   22.5640 C   0  0  0  0  0  0  0  0  0  0  0  0
   29.5990   10.6170   18.4040 C   0  0  0  0  0  0  0  0  0  0  0  0
   28.2830   11.2920   18.0690 C   0  0  1  0  0  0  0  0  0  0  0  0
   30.2650    9.9450   17.2230 C   0  0  0  0  0  0  0  0  0  0  0  0
   31.7490   10.2210   17.3020 C   0  0  0  0  0  0  0  0  0  0  0  0
   33.9360    9.5310   18.0410 C   0  0  0  0  0  0  0  0  0  0  0  0
   27.0870   10.7660   18.8990 C   0  0  0  0  0  0  0  0  0  0  0  0
   34.5300   10.6610   17.4420 C   0  0  0  0  0  0  0  0  0  0  0  0
   36.0330   10.8770   17.5760 C   0  0  0  0  0  0  0  0  0  0  0  0
   33.7050   11.5750   16.7650 C   0  0  0  0  0  0  0  0  0  0  0  0
   32.3290   11.3390   16.6780 C   0  0  0  0  0  0  0  0  0  0  0  0
   29.3660   15.3830   15.6720 C   0  0  0  0  0  0  0  0  0  0  0  0
   27.1640   10.9640   20.4240 C   0  0  0  0  0  0  0  0  0  0  0  0
   29.1080   16.4850   18.1240 H   0  0  0  0  0  0  0  0  0  0  0  0
   37.4170   12.1690   16.8810 H   0  0  0  0  0  0  0  0  0  0  0  0
   36.6160   11.2570   15.6840 H   0  0  0  0  0  0  0  0  0  0  0  0
   28.6710   15.3780   20.2390 H   0  0  0  0  0  0  0  0  0  0  0  0
   36.1750    9.9850   19.3630 H   0  0  0  0  0  0  0  0  0  0  0  0
   28.2640   12.9770   20.2610 H   0  0  0  0  0  0  0  0  0  0  0  0
   30.9780   14.6260   14.7700 H   0  0  0  0  0  0  0  0  0  0  0  0
   31.0730   16.2830   15.1620 H   0  0  0  0  0  0  0  0  0  0  0  0
   27.4660   15.8750   15.3650 H   0  0  0  0  0  0  0  0  0  0  0  0
   28.8740   12.8180   16.1040 H   0  0  0  0  0  0  0  0  0  0  0  0
   32.1340    8.5200   18.4860 H   0  0  0  0  0  0  0  0  0  0  0  0
   28.7960    9.3350   22.8500 H   0  0  0  0  0  0  0  0  0  0  0  0
   27.1420    9.8780   22.9980 H   0  0  0  0  0  0  0  0  0  0  0  0
   28.4400   11.0450   22.9090 H   0  0  0  0  0  0  0  0  0  0  0  0
   30.2670   11.3570   18.7910 H   0  0  0  0  0  0  0  0  0  0  0  0
   29.3800    9.8480   19.1150 H   0  0  0  0  0  0  0  0  0  0  0  0
   27.9790   11.0500   17.0720 H   0  0  0  0  0  0  0  0  0  0  0  0
   29.8710   10.3400   16.3100 H   0  0  0  0  0  0  0  0  0  0  0  0
   30.0820    8.8910   17.2430 H   0  0  0  0  0  0  0  0  0  0  0  0
   34.5340    8.8400   18.5190 H   0  0  0  0  0  0  0  0  0  0  0  0
   27.0000    9.7160   18.7130 H   0  0  0  0  0  0  0  0  0  0  0  0
   26.2460   11.3470   18.5820 H   0  0  0  0  0  0  0  0  0  0  0  0
   34.1130   12.4180   16.3320 H   0  0  0  0  0  0  0  0  0  0  0  0
   31.7330   11.9940   16.1490 H   0  0  0  0  0  0  0  0  0  0  0  0
  1  3  1  0  0  0  0
  2 28  1  0  0  0  0
  2 22  1  0  0  0  0
  3  5  2  0  0  0  0
  3 30  1  0  0  0  0
  4 31  1  0  0  0  0
  5 32  1  0  0  0  0
  6 34  1  0  0  0  0
  6 25  1  0  0  0  0
  8  5  1  0  0  0  0
  9 35  1  0  0  0  0
  9 25  2  0  0  0  0
 10 14  1  0  0  0  0
 11  8  2  0  0  0  0
 12 11  1  0  0  0  0
 12  1  2  0  0  0  0
 13 19  1  0  0  0  0
 13 37  1  0  0  0  0
 14 38  1  0  0  0  0
 14 40  1  0  0  0  0
 14 39  1  0  0  0  0
 15 41  1  0  0  0  0
 15 42  1  0  0  0  0
 16 43  1  6  0  0  0
 16  8  1  0  0  0  0
 16 15  1  0  0  0  0
 16 20  1  0  0  0  0
 17 45  1  0  0  0  0
 17 18  1  0  0  0  0
 17 15  1  0  0  0  0
 18 13  2  0  0  0  0
 19 46  1  0  0  0  0
 20 26  1  0  0  0  0
 21 22  1  0  0  0  0
 21 19  2  0  0  0  0
 22  4  2  0  0  0  0
 23 21  1  0  0  0  0
 24 23  2  0  0  0  0
 24 18  1  0  0  0  0
 25 12  1  0  0  0  0
 26  7  2  0  0  0  0
 26 10  1  0  0  0  0
 27  1  1  0  0  0  0
 29  2  1  0  0  0  0
 33  6  1  0  0  0  0
 36 11  1  0  0  0  0
 44 17  1  0  0  0  0
 47 20  1  0  0  0  0
 48 20  1  0  0  0  0
 49 23  1  0  0  0  0
 50 24  1  0  0  0  0
M  END
>  <Pose>
1

>  <Score>
-7.35

$$$$
1AZ8
 OpenBabel10272317083D

 50 47  0  0  1  0  0  0  0  0999 V2000
   27.7050    7.8650   18.0920 C   0  0  0  0  0  0  0  0  0  0  0  0
   29.5680   17.2790   15.2180 N   0  0  0  0  0  0  0  0  0  0  0  0
   28.7650    7.0260   18.4150 C   0  0  0  0  0  0  0  0  0  0  0  0
   27.3960   16.9570   15.8000 N   0  0  0  0  0  0  0  0  0  0  0  0
   30.0630    7.5340   18.3720 C   0  0  0  0  0  0  0  0  0  0  0  0
   25.9860   10.6130   18.3560 N   0  0  0  0  0  0  0  0  0  0  0  0
   34.2710   10.7520   18.5360 O   0  0  0  0  0  0  0  0  0  0  0  0
   30.2830    8.8760   18.0090 C   0  0  0  0  0  0  0  0  0  0  0  0
   26.6300   10.4660   16.2080 N   0  0  0  0  0  0  0  0  0  0  0  0
   35.0010    8.7650   19.3850 O   0  0  0  0  0  0  0  0  0  0  0  0
   29.2170    9.7080   17.7290 C   0  0  0  0  0  0  0  0  0  0  0  0
   27.9340    9.2080   17.7770 C   0  0  0  0  0  0  0  0  0  0  0  0
   29.9740   12.9890   16.4420 C   0  0  0  0  0  0  0  0  0  0  0  0
   36.2260    9.1490   20.0020 C   0  0  0  0  0  0  0  0  0  0  0  0
   31.3610   10.9910   17.7490 C   0  0  0  0  0  0  0  0  0  0  0  0
   31.5980    9.5040   17.9320 C   0  0  1  0  0  0  0  0  0  0  0  0
   30.1190   11.5070   18.4440 C   0  0  0  0  0  0  0  0  0  0  0  0
   29.7340   12.8200   17.8010 C   0  0  0  0  0  0  0  0  0  0  0  0
   29.5760   14.1720   15.8140 C   0  0  0  0  0  0  0  0  0  0  0  0
   32.5480    9.1670   19.1070 C   0  0  0  0  0  0  0  0  0  0  0  0
   28.9930   15.2300   16.5410 C   0  0  0  0  0  0  0  0  0  0  0  0
   28.6440   16.5290   15.8230 C   0  0  0  0  0  0  0  0  0  0  0  0
   28.7830   15.0620   17.9200 C   0  0  0  0  0  0  0  0  0  0  0  0
   29.1310   13.8560   18.5350 C   0  0  0  0  0  0  0  0  0  0  0  0
   26.7970   10.1180   17.4510 C   0  0  0  0  0  0  0  0  0  0  0  0
   34.0110    9.6280   18.9660 C   0  0  0  0  0  0  0  0  0  0  0  0
   26.7420    7.4940   18.0850 H   0  0  0  0  0  0  0  0  0  0  0  0
   29.6860   17.2220   14.2420 H   0  0  0  0  0  0  0  0  0  0  0  0
   30.1310   17.8880   15.7470 H   0  0  0  0  0  0  0  0  0  0  0  0
   28.5940    6.0440   18.6820 H   0  0  0  0  0  0  0  0  0  0  0  0
   26.6870   16.4310   16.2360 H   0  0  0  0  0  0  0  0  0  0  0  0
   30.8630    6.9260   18.6070 H   0  0  0  0  0  0  0  0  0  0  0  0
   25.8030   10.1100   19.1820 H   0  0  0  0  0  0  0  0  0  0  0  0
   25.5610   11.4890   18.2090 H   0  0  0  0  0  0  0  0  0  0  0  0
   27.2260   10.1070   15.5110 H   0  0  0  0  0  0  0  0  0  0  0  0
   29.3800   10.6970   17.4860 H   0  0  0  0  0  0  0  0  0  0  0  0
   30.4430   12.2460   15.9010 H   0  0  0  0  0  0  0  0  0  0  0  0
   36.8040    8.2760   20.2210 H   0  0  0  0  0  0  0  0  0  0  0  0
   36.0180    9.6760   20.9090 H   0  0  0  0  0  0  0  0  0  0  0  0
   36.7750    9.7840   19.3380 H   0  0  0  0  0  0  0  0  0  0  0  0
   32.2070   11.5170   18.1390 H   0  0  0  0  0  0  0  0  0  0  0  0
   31.2200   11.1550   16.7010 H   0  0  0  0  0  0  0  0  0  0  0  0
   32.1340    9.1030   17.0970 H   0  0  0  0  0  0  0  0  0  0  0  0
   30.3210   11.6570   19.4840 H   0  0  0  0  0  0  0  0  0  0  0  0
   29.3210   10.8010   18.3510 H   0  0  0  0  0  0  0  0  0  0  0  0
   29.7120   14.2730   14.7960 H   0  0  0  0  0  0  0  0  0  0  0  0
   32.5520    8.1040   19.2260 H   0  0  0  0  0  0  0  0  0  0  0  0
   32.1620    9.7090   19.9450 H   0  0  0  0  0  0  0  0  0  0  0  0
   28.3730   15.8280   18.4770 H   0  0  0  0  0  0  0  0  0  0  0  0
   28.9420   13.7240   19.5410 H   0  0  0  0  0  0  0  0  0  0  0  0
  1  3  1  0  0  0  0
  2 29  1  0  0  0  0
  2 22  1  0  0  0  0
  3 30  1  0  0  0  0
  4 22  2  0  0  0  0
  4 31  1  0  0  0  0
  5  3  2  0  0  0  0
  5 32  1  0  0  0  0
  6 33  1  0  0  0  0
  7 26  2  0  0  0  0
  8  5  1  0  0  0  0
  9 25  2  0  0  0  0
 10 14  1  0  0  0  0
 12  1  2  0  0  0  0
 13 18  1  0  0  0  0
 14 38  1  0  0  0  0
 14 39  1  0  0  0  0
 15 16  1  0  0  0  0
 15 41  1  0  0  0  0
 16 43  1  6  0  0  0
 16  8  1  0  0  0  0
 16 20  1  0  0  0  0
 17 44  1  0  0  0  0
 18 24  2  0  0  0  0
 19 13  2  0  0  0  0
 19 21  1  0  0  0  0
 20 47  1  0  0  0  0
 20 48  1  0  0  0  0
 21 23  2  0  0  0  0
 22 21  1  0  0  0  0
 23 49  1  0  0  0  0
 23 24  1  0  0  0  0
 24 50  1  0  0  0  0
 25 12  1  0  0  0  0
 25  6  1  0  0  0  0
 26 20  1  0  0  0  0
 26 10  1  0  0  0  0
 27  1  1  0  0  0  0
 28  2  1  0  0  0  0
 34  6  1  0  0  0  0
 35  9  1  0  0  0  0
 36 11  1  0  0  0  0
 37 13  1  0  0  0  0
 40 14  1  0  0  0  0
 42 15  1  0  0  0  0
 45 17  1  0  0  0  0
 46 19  1  0  0  0  0
M  END
>  <Pose>
1

>  <Score>
-7.32

$$$$
1AZ8
 OpenBabel10272317083D

 50 51  0  0  1  0  0  0  0  0999 V2000
   24.1490    7.9830   19.2610 C   0  0  0  0  0  0  0  0  0  0  0  0
   29.5570   17.0750   14.9900 N   0  0  0  0  0  0  0  0  0  0  0  0
   24.3990    8.0210   20.6280 C   0  0  0  0  0  0  0  0  0  0  0  0
   30.1400   15.1200   13.9910 N   0  0  0  0  0  0  0  0  0  0  0  0
   25.4130    8.8510   21.1050 C   0  0  0  0  0  0  0  0  0  0  0  0
   25.5130    8.9820   16.0060 N   0  0  0  0  0  0  0  0  0  0  0  0
   28.7720   11.9840   23.4700 O   0  0  0  0  0  0  0  0  0  0  0  0
   26.1640    9.6340   20.2070 C   0  0  0  0  0  0  0  0  0  0  0  0
   23.3800    8.5060   16.5320 N   0  0  0  0  0  0  0  0  0  0  0  0
   28.3970    9.7340   23.4600 O   0  0  0  0  0  0  0  0  0  0  0  0
   25.8780    9.6150   18.8570 C   0  0  0  0  0  0  0  0  0  0  0  0
   24.8720    8.8000   18.3860 C   0  0  0  0  0  0  0  0  0  0  0  0
   28.0130   14.8250   18.3800 C   0  0  0  0  0  0  0  0  0  0  0  0
   29.3130    9.3720   24.4880 C   0  0  0  0  0  0  0  0  0  0  0  0
   27.4460   11.5010   19.4530 C   0  0  0  0  0  0  0  0  0  0  0  0
   27.2440   10.5310   20.6010 C   0  0  1  0  0  0  0  0  0  0  0  0
   28.0710   12.8180   19.8620 C   0  0  0  0  0  0  0  0  0  0  0  0
   28.5000   13.5420   18.6070 C   0  0  0  0  0  0  0  0  0  0  0  0
   28.4390   15.5360   17.2560 C   0  0  0  0  0  0  0  0  0  0  0  0
   27.0460   11.2240   21.9710 C   0  0  0  0  0  0  0  0  0  0  0  0
   29.3060   14.9580   16.3060 C   0  0  0  0  0  0  0  0  0  0  0  0
   29.6850   15.7480   15.0580 C   0  0  0  0  0  0  0  0  0  0  0  0
   29.7690   13.6500   16.5270 C   0  0  0  0  0  0  0  0  0  0  0  0
   29.3850   12.9610   17.6820 C   0  0  0  0  0  0  0  0  0  0  0  0
   24.5930    8.7790   16.9200 C   0  0  0  0  0  0  0  0  0  0  0  0
   28.1570   11.0180   23.0170 C   0  0  0  0  0  0  0  0  0  0  0  0
   23.4260    7.3480   18.8900 H   0  0  0  0  0  0  0  0  0  0  0  0
   29.2200   17.4960   14.1660 H   0  0  0  0  0  0  0  0  0  0  0  0
   29.8010   17.6330   15.7630 H   0  0  0  0  0  0  0  0  0  0  0  0
   23.8420    7.4450   21.2790 H   0  0  0  0  0  0  0  0  0  0  0  0
   30.2470   14.1420   14.0040 H   0  0  0  0  0  0  0  0  0  0  0  0
   25.6140    8.8910   22.1170 H   0  0  0  0  0  0  0  0  0  0  0  0
   25.8490    8.2280   15.4700 H   0  0  0  0  0  0  0  0  0  0  0  0
   25.8670    9.8890   15.8580 H   0  0  0  0  0  0  0  0  0  0  0  0
   22.6730    8.3500   17.2000 H   0  0  0  0  0  0  0  0  0  0  0  0
   26.4140   10.2080   18.2040 H   0  0  0  0  0  0  0  0  0  0  0  0
   27.3400   15.2490   19.0380 H   0  0  0  0  0  0  0  0  0  0  0  0
   29.2950    8.3110   24.6240 H   0  0  0  0  0  0  0  0  0  0  0  0
   29.0320    9.8530   25.4010 H   0  0  0  0  0  0  0  0  0  0  0  0
   30.2990    9.6800   24.2110 H   0  0  0  0  0  0  0  0  0  0  0  0
   28.0830   11.0370   18.7290 H   0  0  0  0  0  0  0  0  0  0  0  0
   26.4750   11.7260   19.0640 H   0  0  0  0  0  0  0  0  0  0  0  0
   28.1330    9.9610   20.7730 H   0  0  0  0  0  0  0  0  0  0  0  0
   28.9210   12.6390   20.4860 H   0  0  0  0  0  0  0  0  0  0  0  0
   27.3660   13.4100   20.4090 H   0  0  0  0  0  0  0  0  0  0  0  0
   28.1130   16.5050   17.1170 H   0  0  0  0  0  0  0  0  0  0  0  0
   26.1330   10.8560   22.3910 H   0  0  0  0  0  0  0  0  0  0  0  0
   27.0490   12.2730   21.7590 H   0  0  0  0  0  0  0  0  0  0  0  0
   30.3920   13.1990   15.8390 H   0  0  0  0  0  0  0  0  0  0  0  0
   29.7570   12.0150   17.8580 H   0  0  0  0  0  0  0  0  0  0  0  0
  1  3  1  0  0  0  0
  2 22  1  0  0  0  0
  2 29  1  0  0  0  0
  3  5  2  0  0  0  0
  3 30  1  0  0  0  0
  4 31  1  0  0  0  0
  4 22  2  0  0  0  0
  5 32  1  0  0  0  0
  6 25  1  0  0  0  0
  8 16  1  0  0  0  0
  8  5  1  0  0  0  0
  9 25  2  0  0  0  0
  9 35  1  0  0  0  0
 10 14  1  0  0  0  0
 11  8  2  0  0  0  0
 12 11  1  0  0  0  0
 12  1  2  0  0  0  0
 13 18  1  0  0  0  0
 13 37  1  0  0  0  0
 14 38  1  0  0  0  0
 14 39  1  0  0  0  0
 15 17  1  0  0  0  0
 15 16  1  0  0  0  0
 16 43  1  1  0  0  0
 16 20  1  0  0  0  0
 17 45  1  0  0  0  0
 17 44  1  0  0  0  0
 18 17  1  0  0  0  0
 19 13  2  0  0  0  0
 20 47  1  0  0  0  0
 20 26  1  0  0  0  0
 21 23  2  0  0  0  0
 21 19  1  0  0  0  0
 22 21  1  0  0  0  0
 23 24  1  0  0  0  0
 24 50  1  0  0  0  0
 24 18  2  0  0  0  0
 25 12  1  0  0  0  0
 26 10  1  0  0  0  0
 26  7  2  0  0  0  0
 27  1  1  0  0  0  0
 28  2  1  0  0  0  0
 33  6  1  0  0  0  0
 34  6  1  0  0  0  0
 36 11  1  0  0  0  0
 40 14  1  0  0  0  0
 41 15  1  0  0  0  0
 42 15  1  0  0  0  0
 46 19  1  0  0  0  0
 48 20  1  0  0  0  0
 49 23  1  0  0  0  0
M  END
>  <Pose>
1

>  <Score>
-7.13

$$$$
