1AZ8


 32 33  0  0  0  0  0  0  0  0999 V2000
   29.5557   11.4763   17.8449 C   0  0  0  0  0  0  0  0  0  0  0  0
   28.6436   15.6023   17.9659 C   0  0  0  0  0  0  0  0  0  0  0  0
   28.4521   14.8713   19.1321 C   0  0  0  0  0  0  0  0  0  0  0  0
   28.7427   13.5069   19.1279 C   0  0  0  0  0  0  0  0  0  0  0  0
   29.2236   12.8926   17.9559 C   0  0  0  0  0  0  0  0  0  0  0  0
   29.4461   13.6403   16.8167 C   0  0  0  0  0  0  0  0  0  0  0  0
   29.1647   14.9887   16.8225 C   0  0  0  0  0  0  0  0  0  0  0  0
   28.9670   17.0044   15.4067 N   0  0  0  0  0  0  0  0  0  0  0  0
   30.0846   15.2196   14.6205 N   0  0  0  0  0  0  0  0  0  0  0  0
   29.3929   15.7742   15.5742 C   0  0  0  0  0  0  0  0  0  0  0  0
   28.4423   17.4443   16.1140 H   0  0  0  0  0  0  0  0  0  0  0  0
   29.1724   17.4873   14.5737 H   0  0  0  0  0  0  0  0  0  0  0  0
   30.4145   14.2978   14.7238 H   0  0  0  0  0  0  0  0  0  0  0  0
   30.9837   11.3240   18.3317 C   0  0  0  0  0  0  0  0  0  0  0  0
   31.4680    9.8904   18.3825 C   0  0  0  0  0  0  0  0  0  0  0  0
   33.8975    9.7939   18.9420 C   0  0  0  0  0  0  0  0  0  0  0  0
   32.9185    9.8708   17.9575 C   0  0  0  0  0  0  0  0  0  0  0  0
   35.2425    9.7177   18.5720 C   0  0  0  0  0  0  0  0  0  0  0  0
   35.6376    9.7822   17.2206 C   0  0  0  0  0  0  0  0  0  0  0  0
   34.6429    9.8911   16.2339 C   0  0  0  0  0  0  0  0  0  0  0  0
   33.2948    9.9105   16.6038 C   0  0  0  0  0  0  0  0  0  0  0  0
   37.6855    8.7640   16.1972 N   0  0  0  0  0  0  0  0  0  0  0  0
   37.8999   10.7643   17.2521 N   0  0  0  0  0  0  0  0  0  0  0  0
   37.1218    9.7690   16.8717 C   0  0  0  0  0  0  0  0  0  0  0  0
   37.1367    8.0038   15.8969 H   0  0  0  0  0  0  0  0  0  0  0  0
   38.6499    8.7832   16.0001 H   0  0  0  0  0  0  0  0  0  0  0  0
   37.5199   11.5229   17.7515 H   0  0  0  0  0  0  0  0  0  0  0  0
   28.5577   10.5192   18.5407 C   0  0  0  0  0  0  0  0  0  0  0  0
   26.8781   10.6081   16.8157 O   0  0  0  0  0  0  0  0  0  0  0  0
   27.1072   10.5386   18.0236 C   0  0  0  0  0  0  0  0  0  0  0  0
   26.0910   10.4234   18.9485 O   0  0  0  0  0  0  0  0  0  0  0  0
   26.1117   10.9537   20.2697 C   0  0  0  0  0  0  0  0  0  0  0  0
  2  3  2  0  0  0
  2  7  1  0  0  0
  3  4  1  0  0  0
  4  5  2  0  0  0
  5  6  1  0  0  0
  5  1  1  0  0  0
 31 32  1  0  0  0
  6  7  2  0  0  0
  7 10  1  0  0  0
 16 18  2  0  0  0
 14 15  1  0  0  0
 14  1  1  0  0  0
  1 28  1  0  0  0
 15 17  1  0  0  0
 16 17  1  0  0  0
 17 21  2  0  0  0
 18 19  1  0  0  0
 28 30  1  0  0  0
 19 24  1  0  0  0
 19 20  2  0  0  0
 22 24  1  0  0  0
 23 24  2  0  0  0
 20 21  1  0  0  0
  8 10  1  0  0  0
  9 10  2  0  0  0
 29 30  2  0  0  0
 31 30  1  0  0  0
 22 25  1  0  0  0
 22 26  1  0  0  0
 23 27  1  0  0  0
  8 11  1  0  0  0
  8 12  1  0  0  0
  9 13  1  0  0  0
M  END
> <minimizedAffinity>
-8.28238

$$$$
1AZ8


 32 33  0  0  0  0  0  0  0  0999 V2000
   28.8500   11.2876   17.6249 C   0  0  0  0  0  0  0  0  0  0  0  0
   28.3356   15.4742   17.9035 C   0  0  0  0  0  0  0  0  0  0  0  0
   27.9172   14.7059   18.9833 C   0  0  0  0  0  0  0  0  0  0  0  0
   28.0716   13.3207   18.9251 C   0  0  0  0  0  0  0  0  0  0  0  0
   28.6452   12.7230   17.7867 C   0  0  0  0  0  0  0  0  0  0  0  0
   29.0921   13.5031   16.7389 C   0  0  0  0  0  0  0  0  0  0  0  0
   28.9450   14.8713   16.7987 C   0  0  0  0  0  0  0  0  0  0  0  0
   29.0158   16.9247   15.4257 N   0  0  0  0  0  0  0  0  0  0  0  0
   30.2991   15.1735   14.8434 N   0  0  0  0  0  0  0  0  0  0  0  0
   29.4160   15.6942   15.6462 C   0  0  0  0  0  0  0  0  0  0  0  0
   28.3488   17.3393   16.0194 H   0  0  0  0  0  0  0  0  0  0  0  0
   29.3826   17.4331   14.6665 H   0  0  0  0  0  0  0  0  0  0  0  0
   30.6142   14.2523   14.9892 H   0  0  0  0  0  0  0  0  0  0  0  0
   27.4802   10.6729   17.4125 C   0  0  0  0  0  0  0  0  0  0  0  0
   27.0447    9.7394   18.5221 C   0  0  0  0  0  0  0  0  0  0  0  0
   24.9941    8.4276   19.0693 C   0  0  0  0  0  0  0  0  0  0  0  0
   25.7453    9.0897   18.1044 C   0  0  0  0  0  0  0  0  0  0  0  0
   23.7628    7.8678   18.7197 C   0  0  0  0  0  0  0  0  0  0  0  0
   23.2907    7.9015   17.3921 C   0  0  0  0  0  0  0  0  0  0  0  0
   24.0712    8.5457   16.4173 C   0  0  0  0  0  0  0  0  0  0  0  0
   25.2763    9.1541   16.7809 C   0  0  0  0  0  0  0  0  0  0  0  0
   21.2851    6.5046   17.9437 N   0  0  0  0  0  0  0  0  0  0  0  0
   21.4899    7.2891   15.8218 N   0  0  0  0  0  0  0  0  0  0  0  0
   21.9752    7.2124   17.0462 C   0  0  0  0  0  0  0  0  0  0  0  0
   21.6160    6.4247   18.8675 H   0  0  0  0  0  0  0  0  0  0  0  0
   20.4453    6.0626   17.6817 H   0  0  0  0  0  0  0  0  0  0  0  0
   21.9710    7.8021   15.1329 H   0  0  0  0  0  0  0  0  0  0  0  0
   29.8803   10.8975   16.5374 C   0  0  0  0  0  0  0  0  0  0  0  0
   30.6800    8.8642   17.5527 O   0  0  0  0  0  0  0  0  0  0  0  0
   30.3352    9.4264   16.5127 C   0  0  0  0  0  0  0  0  0  0  0  0
   30.2914    8.7577   15.3076 O   0  0  0  0  0  0  0  0  0  0  0  0
   29.2221    7.9317   14.8590 C   0  0  0  0  0  0  0  0  0  0  0  0
  2  3  2  0  0  0
  2  7  1  0  0  0
  3  4  1  0  0  0
  4  5  2  0  0  0
  5  6  1  0  0  0
  5  1  1  0  0  0
 31 32  1  0  0  0
  6  7  2  0  0  0
  7 10  1  0  0  0
 16 18  2  0  0  0
 14 15  1  0  0  0
 14  1  1  0  0  0
  1 28  1  0  0  0
 15 17  1  0  0  0
 16 17  1  0  0  0
 17 21  2  0  0  0
 18 19  1  0  0  0
 28 30  1  0  0  0
 19 24  1  0  0  0
 19 20  2  0  0  0
 22 24  1  0  0  0
 23 24  2  0  0  0
 20 21  1  0  0  0
  8 10  1  0  0  0
  9 10  2  0  0  0
 29 30  2  0  0  0
 31 30  1  0  0  0
 22 25  1  0  0  0
 22 26  1  0  0  0
 23 27  1  0  0  0
  8 11  1  0  0  0
  8 12  1  0  0  0
  9 13  1  0  0  0
M  END
> <minimizedAffinity>
-7.72424

$$$$
1AZ8


 32 33  0  0  0  0  0  0  0  0999 V2000
   29.5229   11.3449   17.8654 C   0  0  0  0  0  0  0  0  0  0  0  0
   28.7155   15.4943   17.8913 C   0  0  0  0  0  0  0  0  0  0  0  0
   28.5340   14.8008   19.0818 C   0  0  0  0  0  0  0  0  0  0  0  0
   28.7908   13.4299   19.1092 C   0  0  0  0  0  0  0  0  0  0  0  0
   29.2283   12.7716   17.9441 C   0  0  0  0  0  0  0  0  0  0  0  0
   29.4419   13.4818   16.7795 C   0  0  0  0  0  0  0  0  0  0  0  0
   29.1939   14.8365   16.7538 C   0  0  0  0  0  0  0  0  0  0  0  0
   29.9063   15.0297   14.3955 N   0  0  0  0  0  0  0  0  0  0  0  0
   29.0535   16.8323   15.4328 N   0  0  0  0  0  0  0  0  0  0  0  0
   29.4114   15.5812   15.4789 C   0  0  0  0  0  0  0  0  0  0  0  0
   30.1837   14.0852   14.4065 H   0  0  0  0  0  0  0  0  0  0  0  0
   30.0000   15.5607   13.5717 H   0  0  0  0  0  0  0  0  0  0  0  0
   28.6798   17.2672   16.2331 H   0  0  0  0  0  0  0  0  0  0  0  0
   30.9274   11.1592   18.4057 C   0  0  0  0  0  0  0  0  0  0  0  0
   31.7459   10.1307   17.6543 C   0  0  0  0  0  0  0  0  0  0  0  0
   34.0596   10.8167   18.2880 C   0  0  0  0  0  0  0  0  0  0  0  0
   33.0255    9.8970   18.4245 C   0  0  0  0  0  0  0  0  0  0  0  0
   35.2303   10.6529   19.0325 C   0  0  0  0  0  0  0  0  0  0  0  0
   35.4158    9.5376   19.8742 C   0  0  0  0  0  0  0  0  0  0  0  0
   34.3776    8.5969   19.9821 C   0  0  0  0  0  0  0  0  0  0  0  0
   33.1849    8.7927   19.2793 C   0  0  0  0  0  0  0  0  0  0  0  0
   37.4250    8.2192   20.5832 N   0  0  0  0  0  0  0  0  0  0  0  0
   37.2396   10.3613   21.3160 N   0  0  0  0  0  0  0  0  0  0  0  0
   36.7404    9.3651   20.6095 C   0  0  0  0  0  0  0  0  0  0  0  0
   37.0838    7.4536   20.0668 H   0  0  0  0  0  0  0  0  0  0  0  0
   38.2711    8.1397   21.0802 H   0  0  0  0  0  0  0  0  0  0  0  0
   36.7629   11.2216   21.3590 H   0  0  0  0  0  0  0  0  0  0  0  0
   28.4731   10.4274   18.5381 C   0  0  0  0  0  0  0  0  0  0  0  0
   29.3829    8.7821   20.0447 O   0  0  0  0  0  0  0  0  0  0  0  0
   28.8291    9.8761   19.9313 C   0  0  0  0  0  0  0  0  0  0  0  0
   28.5559   10.6672   21.0272 O   0  0  0  0  0  0  0  0  0  0  0  0
   27.5403   10.4185   21.9936 C   0  0  0  0  0  0  0  0  0  0  0  0
  2  3  2  0  0  0
  2  7  1  0  0  0
  3  4  1  0  0  0
  4  5  2  0  0  0
  5  6  1  0  0  0
  5  1  1  0  0  0
 31 32  1  0  0  0
  6  7  2  0  0  0
  7 10  1  0  0  0
 16 18  2  0  0  0
 14 15  1  0  0  0
 14  1  1  0  0  0
  1 28  1  0  0  0
 15 17  1  0  0  0
 16 17  1  0  0  0
 17 21  2  0  0  0
 18 19  1  0  0  0
 28 30  1  0  0  0
 19 24  1  0  0  0
 19 20  2  0  0  0
 22 24  1  0  0  0
 23 24  2  0  0  0
 20 21  1  0  0  0
  8 10  1  0  0  0
  9 10  2  0  0  0
 29 30  2  0  0  0
 31 30  1  0  0  0
 22 25  1  0  0  0
 22 26  1  0  0  0
 23 27  1  0  0  0
  8 11  1  0  0  0
  8 12  1  0  0  0
  9 13  1  0  0  0
M  END
> <minimizedAffinity>
-7.52830

$$$$
1AZ8


 32 33  0  0  0  0  0  0  0  0999 V2000
   29.7681   11.8587   18.6374 C   0  0  0  0  0  0  0  0  0  0  0  0
   28.1919   15.6966   17.8274 C   0  0  0  0  0  0  0  0  0  0  0  0
   27.8432   15.1047   19.0354 C   0  0  0  0  0  0  0  0  0  0  0  0
   28.3451   13.8382   19.3352 C   0  0  0  0  0  0  0  0  0  0  0  0
   29.1918   13.1816   18.4219 C   0  0  0  0  0  0  0  0  0  0  0  0
   29.5609   13.7995   17.2437 C   0  0  0  0  0  0  0  0  0  0  0  0
   29.0700   15.0526   16.9502 C   0  0  0  0  0  0  0  0  0  0  0  0
   30.2195   15.1050   14.7633 N   0  0  0  0  0  0  0  0  0  0  0  0
   29.0021   16.8830   15.4032 N   0  0  0  0  0  0  0  0  0  0  0  0
   29.4650   15.6937   15.6617 C   0  0  0  0  0  0  0  0  0  0  0  0
   30.5808   14.2058   14.9366 H   0  0  0  0  0  0  0  0  0  0  0  0
   30.4242   15.5628   13.9160 H   0  0  0  0  0  0  0  0  0  0  0  0
   28.4341   17.3440   16.0620 H   0  0  0  0  0  0  0  0  0  0  0  0
   28.6242   10.9432   19.0281 C   0  0  0  0  0  0  0  0  0  0  0  0
   27.4815   10.9261   18.0350 C   0  0  0  0  0  0  0  0  0  0  0  0
   25.7537   10.6168   19.8083 C   0  0  0  0  0  0  0  0  0  0  0  0
   26.3440   10.1384   18.6436 C   0  0  0  0  0  0  0  0  0  0  0  0
   24.6644    9.9369   20.3585 C   0  0  0  0  0  0  0  0  0  0  0  0
   24.1872    8.7361   19.7955 C   0  0  0  0  0  0  0  0  0  0  0  0
   24.8097    8.2434   18.6361 C   0  0  0  0  0  0  0  0  0  0  0  0
   25.8635    8.9556   18.0555 C   0  0  0  0  0  0  0  0  0  0  0  0
   22.8000    8.1016   21.7832 N   0  0  0  0  0  0  0  0  0  0  0  0
   22.2619    7.1947   19.7713 N   0  0  0  0  0  0  0  0  0  0  0  0
   23.0427    7.9922   20.4748 C   0  0  0  0  0  0  0  0  0  0  0  0
   23.3617    8.6872   22.3408 H   0  0  0  0  0  0  0  0  0  0  0  0
   22.0595    7.5966   22.1904 H   0  0  0  0  0  0  0  0  0  0  0  0
   22.4102    7.0887   18.8038 H   0  0  0  0  0  0  0  0  0  0  0  0
   30.6182   11.3215   17.4605 C   0  0  0  0  0  0  0  0  0  0  0  0
   32.8279   10.5994   18.0932 O   0  0  0  0  0  0  0  0  0  0  0  0
   31.6801   10.2602   17.8034 C   0  0  0  0  0  0  0  0  0  0  0  0
   31.2878    8.9385   17.8249 O   0  0  0  0  0  0  0  0  0  0  0  0
   30.4472    8.3100   16.8628 C   0  0  0  0  0  0  0  0  0  0  0  0
  2  3  2  0  0  0
  2  7  1  0  0  0
  3  4  1  0  0  0
  4  5  2  0  0  0
  5  6  1  0  0  0
  5  1  1  0  0  0
 31 32  1  0  0  0
  6  7  2  0  0  0
  7 10  1  0  0  0
 16 18  2  0  0  0
 14 15  1  0  0  0
 14  1  1  0  0  0
  1 28  1  0  0  0
 15 17  1  0  0  0
 16 17  1  0  0  0
 17 21  2  0  0  0
 18 19  1  0  0  0
 28 30  1  0  0  0
 19 24  1  0  0  0
 19 20  2  0  0  0
 22 24  1  0  0  0
 23 24  2  0  0  0
 20 21  1  0  0  0
  8 10  1  0  0  0
  9 10  2  0  0  0
 29 30  2  0  0  0
 31 30  1  0  0  0
 22 25  1  0  0  0
 22 26  1  0  0  0
 23 27  1  0  0  0
  8 11  1  0  0  0
  8 12  1  0  0  0
  9 13  1  0  0  0
M  END
> <minimizedAffinity>
-7.52233

$$$$
1AZ8


 32 33  0  0  0  0  0  0  0  0999 V2000
   31.8783    9.7239   18.0328 C   0  0  0  0  0  0  0  0  0  0  0  0
   35.9655    9.2754   19.0146 C   0  0  0  0  0  0  0  0  0  0  0  0
   35.0431    8.5778   19.7852 C   0  0  0  0  0  0  0  0  0  0  0  0
   33.6857    8.7030   19.4894 C   0  0  0  0  0  0  0  0  0  0  0  0
   33.2696    9.5237   18.4237 C   0  0  0  0  0  0  0  0  0  0  0  0
   34.2005   10.1789   17.6426 C   0  0  0  0  0  0  0  0  0  0  0  0
   35.5414   10.0508   17.9310 C   0  0  0  0  0  0  0  0  0  0  0  0
   36.1892   11.6753   16.1852 N   0  0  0  0  0  0  0  0  0  0  0  0
   37.7954   10.5530   17.2867 N   0  0  0  0  0  0  0  0  0  0  0  0
   36.5297   10.7842   17.0869 C   0  0  0  0  0  0  0  0  0  0  0  0
   35.2383   11.8668   16.0169 H   0  0  0  0  0  0  0  0  0  0  0  0
   36.8848   12.1522   15.6772 H   0  0  0  0  0  0  0  0  0  0  0  0
   38.0746    9.8890   17.9578 H   0  0  0  0  0  0  0  0  0  0  0  0
   31.4680   11.0841   18.5628 C   0  0  0  0  0  0  0  0  0  0  0  0
   29.9818   11.2245   18.8152 C   0  0  0  0  0  0  0  0  0  0  0  0
   29.8358   12.8625   16.9387 C   0  0  0  0  0  0  0  0  0  0  0  0
   29.5371   12.5594   18.2626 C   0  0  0  0  0  0  0  0  0  0  0  0
   29.3867   14.0657   16.3889 C   0  0  0  0  0  0  0  0  0  0  0  0
   28.6902   15.0137   17.1654 C   0  0  0  0  0  0  0  0  0  0  0  0
   28.4198   14.7123   18.5109 C   0  0  0  0  0  0  0  0  0  0  0  0
   28.8212   13.4834   19.0433 C   0  0  0  0  0  0  0  0  0  0  0  0
   29.0065   16.9275   15.5794 N   0  0  0  0  0  0  0  0  0  0  0  0
   27.1988   16.9667   16.9544 N   0  0  0  0  0  0  0  0  0  0  0  0
   28.2852   16.3437   16.5394 C   0  0  0  0  0  0  0  0  0  0  0  0
   29.8236   16.4925   15.2442 H   0  0  0  0  0  0  0  0  0  0  0  0
   28.7212   17.7929   15.2067 H   0  0  0  0  0  0  0  0  0  0  0  0
   26.6416   16.5670   17.6608 H   0  0  0  0  0  0  0  0  0  0  0  0
   31.5948    9.5352   16.5228 C   0  0  0  0  0  0  0  0  0  0  0  0
   30.9187    7.2345   16.7560 O   0  0  0  0  0  0  0  0  0  0  0  0
   31.4275    8.0867   16.0271 C   0  0  0  0  0  0  0  0  0  0  0  0
   31.8151    7.7979   14.7357 O   0  0  0  0  0  0  0  0  0  0  0  0
   32.5028    6.6217   14.3225 C   0  0  0  0  0  0  0  0  0  0  0  0
  2  3  2  0  0  0
  2  7  1  0  0  0
  3  4  1  0  0  0
  4  5  2  0  0  0
  5  6  1  0  0  0
  5  1  1  0  0  0
 31 32  1  0  0  0
  6  7  2  0  0  0
  7 10  1  0  0  0
 16 18  2  0  0  0
 14 15  1  0  0  0
 14  1  1  0  0  0
  1 28  1  0  0  0
 15 17  1  0  0  0
 16 17  1  0  0  0
 17 21  2  0  0  0
 18 19  1  0  0  0
 28 30  1  0  0  0
 19 24  1  0  0  0
 19 20  2  0  0  0
 22 24  1  0  0  0
 23 24  2  0  0  0
 20 21  1  0  0  0
  8 10  1  0  0  0
  9 10  2  0  0  0
 29 30  2  0  0  0
 31 30  1  0  0  0
 22 25  1  0  0  0
 22 26  1  0  0  0
 23 27  1  0  0  0
  8 11  1  0  0  0
  8 12  1  0  0  0
  9 13  1  0  0  0
M  END
> <minimizedAffinity>
-7.34365

$$$$
1AZ8


 32 33  0  0  0  0  0  0  0  0999 V2000
   25.9775    8.8021   18.7929 C   0  0  0  0  0  0  0  0  0  0  0  0
   23.6238    8.5076   15.2939 C   0  0  0  0  0  0  0  0  0  0  0  0
   24.9010    9.0391   15.1618 C   0  0  0  0  0  0  0  0  0  0  0  0
   25.7051    9.1513   16.2961 C   0  0  0  0  0  0  0  0  0  0  0  0
   25.2203    8.7275   17.5481 C   0  0  0  0  0  0  0  0  0  0  0  0
   23.9641    8.1649   17.6563 C   0  0  0  0  0  0  0  0  0  0  0  0
   23.1721    8.0488   16.5352 C   0  0  0  0  0  0  0  0  0  0  0  0
   21.4318    6.7568   17.7222 N   0  0  0  0  0  0  0  0  0  0  0  0
   20.9425    7.6830   15.7333 N   0  0  0  0  0  0  0  0  0  0  0  0
   21.8096    7.4569   16.6781 C   0  0  0  0  0  0  0  0  0  0  0  0
   22.0701    6.5732   18.4489 H   0  0  0  0  0  0  0  0  0  0  0  0
   20.5101    6.4152   17.7785 H   0  0  0  0  0  0  0  0  0  0  0  0
   21.2031    8.2056   14.9408 H   0  0  0  0  0  0  0  0  0  0  0  0
   26.2905   10.2674   19.0258 C   0  0  0  0  0  0  0  0  0  0  0  0
   27.7460   10.5450   19.3366 C   0  0  0  0  0  0  0  0  0  0  0  0
   27.8308   13.0054   18.9312 C   0  0  0  0  0  0  0  0  0  0  0  0
   28.1844   11.7295   18.5061 C   0  0  0  0  0  0  0  0  0  0  0  0
   28.2719   14.1185   18.2114 C   0  0  0  0  0  0  0  0  0  0  0  0
   29.0161   13.9773   17.0228 C   0  0  0  0  0  0  0  0  0  0  0  0
   29.3424   12.6829   16.5839 C   0  0  0  0  0  0  0  0  0  0  0  0
   28.9478   11.5726   17.3363 C   0  0  0  0  0  0  0  0  0  0  0  0
   28.9770   16.4397   16.5611 N   0  0  0  0  0  0  0  0  0  0  0  0
   30.1949   15.1123   15.1774 N   0  0  0  0  0  0  0  0  0  0  0  0
   29.4116   15.2205   16.2334 C   0  0  0  0  0  0  0  0  0  0  0  0
   28.3906   16.5597   17.3428 H   0  0  0  0  0  0  0  0  0  0  0  0
   29.2430   17.2187   16.0211 H   0  0  0  0  0  0  0  0  0  0  0  0
   30.5350   14.2295   14.9051 H   0  0  0  0  0  0  0  0  0  0  0  0
   25.3051    8.1112   20.0041 C   0  0  0  0  0  0  0  0  0  0  0  0
   23.6872    9.6689   20.8762 O   0  0  0  0  0  0  0  0  0  0  0  0
   24.7209    9.0346   21.0893 C   0  0  0  0  0  0  0  0  0  0  0  0
   25.3616    9.0820   22.3094 O   0  0  0  0  0  0  0  0  0  0  0  0
   26.7612    8.9206   22.5149 C   0  0  0  0  0  0  0  0  0  0  0  0
  2  3  2  0  0  0
  2  7  1  0  0  0
  3  4  1  0  0  0
  4  5  2  0  0  0
  5  6  1  0  0  0
  5  1  1  0  0  0
 31 32  1  0  0  0
  6  7  2  0  0  0
  7 10  1  0  0  0
 16 18  2  0  0  0
 14 15  1  0  0  0
 14  1  1  0  0  0
  1 28  1  0  0  0
 15 17  1  0  0  0
 16 17  1  0  0  0
 17 21  2  0  0  0
 18 19  1  0  0  0
 28 30  1  0  0  0
 19 24  1  0  0  0
 19 20  2  0  0  0
 22 24  1  0  0  0
 23 24  2  0  0  0
 20 21  1  0  0  0
  8 10  1  0  0  0
  9 10  2  0  0  0
 29 30  2  0  0  0
 31 30  1  0  0  0
 22 25  1  0  0  0
 22 26  1  0  0  0
 23 27  1  0  0  0
  8 11  1  0  0  0
  8 12  1  0  0  0
  9 13  1  0  0  0
M  END
> <minimizedAffinity>
-7.20097

$$$$
1AZ8


 32 33  0  0  0  0  0  0  0  0999 V2000
   26.8622    9.8468   19.5159 C   0  0  0  0  0  0  0  0  0  0  0  0
   23.2327    8.0474   20.7237 C   0  0  0  0  0  0  0  0  0  0  0  0
   23.9827    8.6910   21.7007 C   0  0  0  0  0  0  0  0  0  0  0  0
   25.1863    9.2955   21.3373 C   0  0  0  0  0  0  0  0  0  0  0  0
   25.6221    9.2494   19.9994 C   0  0  0  0  0  0  0  0  0  0  0  0
   24.8464    8.6404   19.0331 C   0  0  0  0  0  0  0  0  0  0  0  0
   23.6551    8.0485   19.3907 C   0  0  0  0  0  0  0  0  0  0  0  0
   23.2171    7.2926   17.0791 N   0  0  0  0  0  0  0  0  0  0  0  0
   21.7227    6.8151   18.6889 N   0  0  0  0  0  0  0  0  0  0  0  0
   22.8422    7.3776   18.3342 C   0  0  0  0  0  0  0  0  0  0  0  0
   24.0598    7.7101   16.7877 H   0  0  0  0  0  0  0  0  0  0  0  0
   22.6557    6.8113   16.4292 H   0  0  0  0  0  0  0  0  0  0  0  0
   21.4212    6.8658   19.6247 H   0  0  0  0  0  0  0  0  0  0  0  0
   26.6978   11.3494   19.6352 C   0  0  0  0  0  0  0  0  0  0  0  0
   27.9618   12.0776   20.0407 C   0  0  0  0  0  0  0  0  0  0  0  0
   29.0268   12.5378   17.8318 C   0  0  0  0  0  0  0  0  0  0  0  0
   28.3293   13.0328   18.9283 C   0  0  0  0  0  0  0  0  0  0  0  0
   29.3285   13.3886   16.7656 C   0  0  0  0  0  0  0  0  0  0  0  0
   28.9983   14.7583   16.8024 C   0  0  0  0  0  0  0  0  0  0  0  0
   28.3208   15.2564   17.9282 C   0  0  0  0  0  0  0  0  0  0  0  0
   27.9703   14.3912   18.9689 C   0  0  0  0  0  0  0  0  0  0  0  0
   30.2883   15.2696   14.7161 N   0  0  0  0  0  0  0  0  0  0  0  0
   28.9202   16.8808   15.5483 N   0  0  0  0  0  0  0  0  0  0  0  0
   29.4140   15.6612   15.6462 C   0  0  0  0  0  0  0  0  0  0  0  0
   30.6781   14.3665   14.7561 H   0  0  0  0  0  0  0  0  0  0  0  0
   30.5431   15.8840   13.9902 H   0  0  0  0  0  0  0  0  0  0  0  0
   28.2729   17.2047   16.2156 H   0  0  0  0  0  0  0  0  0  0  0  0
   28.1478    9.3080   20.1892 C   0  0  0  0  0  0  0  0  0  0  0  0
   29.0201    7.2073   19.3951 O   0  0  0  0  0  0  0  0  0  0  0  0
   29.0702    8.4353   19.3179 C   0  0  0  0  0  0  0  0  0  0  0  0
   29.9042    9.0718   18.4230 O   0  0  0  0  0  0  0  0  0  0  0  0
   31.2101    9.5591   18.7130 C   0  0  0  0  0  0  0  0  0  0  0  0
  2  3  2  0  0  0
  2  7  1  0  0  0
  3  4  1  0  0  0
  4  5  2  0  0  0
  5  6  1  0  0  0
  5  1  1  0  0  0
 31 32  1  0  0  0
  6  7  2  0  0  0
  7 10  1  0  0  0
 16 18  2  0  0  0
 14 15  1  0  0  0
 14  1  1  0  0  0
  1 28  1  0  0  0
 15 17  1  0  0  0
 16 17  1  0  0  0
 17 21  2  0  0  0
 18 19  1  0  0  0
 28 30  1  0  0  0
 19 24  1  0  0  0
 19 20  2  0  0  0
 22 24  1  0  0  0
 23 24  2  0  0  0
 20 21  1  0  0  0
  8 10  1  0  0  0
  9 10  2  0  0  0
 29 30  2  0  0  0
 31 30  1  0  0  0
 22 25  1  0  0  0
 22 26  1  0  0  0
 23 27  1  0  0  0
  8 11  1  0  0  0
  8 12  1  0  0  0
  9 13  1  0  0  0
M  END
> <minimizedAffinity>
-7.16751

$$$$
1AZ8


 32 33  0  0  0  0  0  0  0  0999 V2000
   28.7648    9.9158   20.2812 C   0  0  0  0  0  0  0  0  0  0  0  0
   30.9714    8.6607   16.9010 C   0  0  0  0  0  0  0  0  0  0  0  0
   31.6835    8.9390   18.0615 C   0  0  0  0  0  0  0  0  0  0  0  0
   30.9872    9.3560   19.1960 C   0  0  0  0  0  0  0  0  0  0  0  0
   29.5860    9.4869   19.1542 C   0  0  0  0  0  0  0  0  0  0  0  0
   28.8891    9.1685   18.0057 C   0  0  0  0  0  0  0  0  0  0  0  0
   29.5760    8.7511   16.8871 C   0  0  0  0  0  0  0  0  0  0  0  0
   27.4992    8.3007   15.6258 N   0  0  0  0  0  0  0  0  0  0  0  0
   29.4627    8.3180   14.5317 N   0  0  0  0  0  0  0  0  0  0  0  0
   28.8051    8.4321   15.6497 C   0  0  0  0  0  0  0  0  0  0  0  0
   26.9809    8.3829   16.4588 H   0  0  0  0  0  0  0  0  0  0  0  0
   27.0382    8.1199   14.7749 H   0  0  0  0  0  0  0  0  0  0  0  0
   30.4426    8.4128   14.5252 H   0  0  0  0  0  0  0  0  0  0  0  0
   28.1132   11.2228   19.8734 C   0  0  0  0  0  0  0  0  0  0  0  0
   28.9534   12.4480   20.1657 C   0  0  0  0  0  0  0  0  0  0  0  0
   28.5702   14.5691   18.9090 C   0  0  0  0  0  0  0  0  0  0  0  0
   29.0492   13.2636   18.8967 C   0  0  0  0  0  0  0  0  0  0  0  0
   28.6986   15.3612   17.7655 C   0  0  0  0  0  0  0  0  0  0  0  0
   29.2462   14.8467   16.5730 C   0  0  0  0  0  0  0  0  0  0  0  0
   29.6994   13.5167   16.5604 C   0  0  0  0  0  0  0  0  0  0  0  0
   29.6212   12.7436   17.7227 C   0  0  0  0  0  0  0  0  0  0  0  0
   29.6730   15.2571   14.1383 N   0  0  0  0  0  0  0  0  0  0  0  0
   28.9814   17.0065   15.4117 N   0  0  0  0  0  0  0  0  0  0  0  0
   29.2976   15.7283   15.3299 C   0  0  0  0  0  0  0  0  0  0  0  0
   29.9165   14.3085   14.0385 H   0  0  0  0  0  0  0  0  0  0  0  0
   29.7064   15.8585   13.3595 H   0  0  0  0  0  0  0  0  0  0  0  0
   28.6999   17.3898   16.2737 H   0  0  0  0  0  0  0  0  0  0  0  0
   27.7602    8.8551   20.7931 C   0  0  0  0  0  0  0  0  0  0  0  0
   26.9765    9.7297   22.8967 O   0  0  0  0  0  0  0  0  0  0  0  0
   26.6728    9.3466   21.7665 C   0  0  0  0  0  0  0  0  0  0  0  0
   25.3718    9.3903   21.3117 O   0  0  0  0  0  0  0  0  0  0  0  0
   24.9590    9.1777   19.9658 C   0  0  0  0  0  0  0  0  0  0  0  0
  2  3  2  0  0  0
  2  7  1  0  0  0
  3  4  1  0  0  0
  4  5  2  0  0  0
  5  6  1  0  0  0
  5  1  1  0  0  0
 31 32  1  0  0  0
  6  7  2  0  0  0
  7 10  1  0  0  0
 16 18  2  0  0  0
 14 15  1  0  0  0
 14  1  1  0  0  0
  1 28  1  0  0  0
 15 17  1  0  0  0
 16 17  1  0  0  0
 17 21  2  0  0  0
 18 19  1  0  0  0
 28 30  1  0  0  0
 19 24  1  0  0  0
 19 20  2  0  0  0
 22 24  1  0  0  0
 23 24  2  0  0  0
 20 21  1  0  0  0
  8 10  1  0  0  0
  9 10  2  0  0  0
 29 30  2  0  0  0
 31 30  1  0  0  0
 22 25  1  0  0  0
 22 26  1  0  0  0
 23 27  1  0  0  0
  8 11  1  0  0  0
  8 12  1  0  0  0
  9 13  1  0  0  0
M  END
> <minimizedAffinity>
-7.14684

$$$$
1AZ8


 32 33  0  0  0  0  0  0  0  0999 V2000
   27.5098   11.7876   19.9997 C   0  0  0  0  0  0  0  0  0  0  0  0
   29.8902   13.8008   17.1447 C   0  0  0  0  0  0  0  0  0  0  0  0
   30.2771   12.5163   17.5074 C   0  0  0  0  0  0  0  0  0  0  0  0
   29.5146   11.8227   18.4473 C   0  0  0  0  0  0  0  0  0  0  0  0
   28.3729   12.4240   19.0105 C   0  0  0  0  0  0  0  0  0  0  0  0
   27.9791   13.6854   18.6104 C   0  0  0  0  0  0  0  0  0  0  0  0
   28.7286   14.3681   17.6779 C   0  0  0  0  0  0  0  0  0  0  0  0
   28.9785   16.4972   16.4486 N   0  0  0  0  0  0  0  0  0  0  0  0
   27.1651   16.1846   17.7396 N   0  0  0  0  0  0  0  0  0  0  0  0
   28.2968   15.7387   17.2751 C   0  0  0  0  0  0  0  0  0  0  0  0
   29.8368   16.1811   16.0846 H   0  0  0  0  0  0  0  0  0  0  0  0
   28.6313   17.3822   16.1928 H   0  0  0  0  0  0  0  0  0  0  0  0
   26.6365   15.6333   18.3608 H   0  0  0  0  0  0  0  0  0  0  0  0
   26.3872   11.1171   19.2319 C   0  0  0  0  0  0  0  0  0  0  0  0
   26.5840    9.6302   19.0253 C   0  0  0  0  0  0  0  0  0  0  0  0
   24.4922    8.3885   18.4705 C   0  0  0  0  0  0  0  0  0  0  0  0
   25.5594    9.1576   18.0194 C   0  0  0  0  0  0  0  0  0  0  0  0
   23.5026    7.9873   17.5697 C   0  0  0  0  0  0  0  0  0  0  0  0
   23.5930    8.2896   16.1961 C   0  0  0  0  0  0  0  0  0  0  0  0
   24.6911    9.0409   15.7440 C   0  0  0  0  0  0  0  0  0  0  0  0
   25.6509    9.4891   16.6566 C   0  0  0  0  0  0  0  0  0  0  0  0
   21.6136    6.8667   15.6171 N   0  0  0  0  0  0  0  0  0  0  0  0
   22.4906    8.1894   13.9919 N   0  0  0  0  0  0  0  0  0  0  0  0
   22.5255    7.7667   15.2412 C   0  0  0  0  0  0  0  0  0  0  0  0
   21.6083    6.5278   16.5414 H   0  0  0  0  0  0  0  0  0  0  0  0
   20.9464    6.5421   14.9700 H   0  0  0  0  0  0  0  0  0  0  0  0
   23.1470    8.8528   13.6783 H   0  0  0  0  0  0  0  0  0  0  0  0
   28.2389   10.8418   20.9846 C   0  0  0  0  0  0  0  0  0  0  0  0
   26.8668    9.8202   22.6811 O   0  0  0  0  0  0  0  0  0  0  0  0
   27.6471   10.7310   22.4020 C   0  0  0  0  0  0  0  0  0  0  0  0
   28.0599   11.6466   23.3469 O   0  0  0  0  0  0  0  0  0  0  0  0
   27.8766   11.5227   24.7533 C   0  0  0  0  0  0  0  0  0  0  0  0
  2  3  2  0  0  0
  2  7  1  0  0  0
  3  4  1  0  0  0
  4  5  2  0  0  0
  5  6  1  0  0  0
  5  1  1  0  0  0
 31 32  1  0  0  0
  6  7  2  0  0  0
  7 10  1  0  0  0
 16 18  2  0  0  0
 14 15  1  0  0  0
 14  1  1  0  0  0
  1 28  1  0  0  0
 15 17  1  0  0  0
 16 17  1  0  0  0
 17 21  2  0  0  0
 18 19  1  0  0  0
 28 30  1  0  0  0
 19 24  1  0  0  0
 19 20  2  0  0  0
 22 24  1  0  0  0
 23 24  2  0  0  0
 20 21  1  0  0  0
  8 10  1  0  0  0
  9 10  2  0  0  0
 29 30  2  0  0  0
 31 30  1  0  0  0
 22 25  1  0  0  0
 22 26  1  0  0  0
 23 27  1  0  0  0
  8 11  1  0  0  0
  8 12  1  0  0  0
  9 13  1  0  0  0
M  END
> <minimizedAffinity>
-7.10539

$$$$
1AZ8


 32 33  0  0  0  0  0  0  0  0999 V2000
   27.0892   10.2495   20.2954 C   0  0  0  0  0  0  0  0  0  0  0  0
   26.6773    8.8393   16.3316 C   0  0  0  0  0  0  0  0  0  0  0  0
   25.5330    9.3098   16.9644 C   0  0  0  0  0  0  0  0  0  0  0  0
   25.6323    9.7824   18.2731 C   0  0  0  0  0  0  0  0  0  0  0  0
   26.8773    9.7797   18.9305 C   0  0  0  0  0  0  0  0  0  0  0  0
   28.0122    9.3460   18.2746 C   0  0  0  0  0  0  0  0  0  0  0  0
   27.9152    8.8847   16.9803 C   0  0  0  0  0  0  0  0  0  0  0  0
   29.7227    7.2509   16.5673 N   0  0  0  0  0  0  0  0  0  0  0  0
   29.6610    9.1445   15.3576 N   0  0  0  0  0  0  0  0  0  0  0  0
   29.1507    8.4011   16.2970 C   0  0  0  0  0  0  0  0  0  0  0  0
   29.3546    6.6720   17.2734 H   0  0  0  0  0  0  0  0  0  0  0  0
   30.5198    6.9672   16.0639 H   0  0  0  0  0  0  0  0  0  0  0  0
   29.2490   10.0111   15.1374 H   0  0  0  0  0  0  0  0  0  0  0  0
   27.2277   11.7577   20.2208 C   0  0  0  0  0  0  0  0  0  0  0  0
   28.6611   12.2448   20.2017 C   0  0  0  0  0  0  0  0  0  0  0  0
   29.5145   12.6742   17.8968 C   0  0  0  0  0  0  0  0  0  0  0  0
   28.8301   13.1558   19.0073 C   0  0  0  0  0  0  0  0  0  0  0  0
   29.6349   13.4769   16.7598 C   0  0  0  0  0  0  0  0  0  0  0  0
   29.1331   14.7938   16.7336 C   0  0  0  0  0  0  0  0  0  0  0  0
   28.4699   15.2832   17.8718 C   0  0  0  0  0  0  0  0  0  0  0  0
   28.3015   14.4581   18.9879 C   0  0  0  0  0  0  0  0  0  0  0  0
   29.0102   16.9456   15.4558 N   0  0  0  0  0  0  0  0  0  0  0  0
   29.8851   15.1295   14.4087 N   0  0  0  0  0  0  0  0  0  0  0  0
   29.3538   15.6560   15.4955 C   0  0  0  0  0  0  0  0  0  0  0  0
   28.6109   17.3733   16.2476 H   0  0  0  0  0  0  0  0  0  0  0  0
   29.1562   17.4688   14.6348 H   0  0  0  0  0  0  0  0  0  0  0  0
   30.1510   14.1816   14.4003 H   0  0  0  0  0  0  0  0  0  0  0  0
   26.0284    9.7738   21.3175 C   0  0  0  0  0  0  0  0  0  0  0  0
   26.9635    7.5864   21.6991 O   0  0  0  0  0  0  0  0  0  0  0  0
   25.9390    8.2563   21.5646 C   0  0  0  0  0  0  0  0  0  0  0  0
   24.6852    7.6944   21.6806 O   0  0  0  0  0  0  0  0  0  0  0  0
   23.5180    8.1278   20.9901 C   0  0  0  0  0  0  0  0  0  0  0  0
  2  3  2  0  0  0
  2  7  1  0  0  0
  3  4  1  0  0  0
  4  5  2  0  0  0
  5  6  1  0  0  0
  5  1  1  0  0  0
 31 32  1  0  0  0
  6  7  2  0  0  0
  7 10  1  0  0  0
 16 18  2  0  0  0
 14 15  1  0  0  0
 14  1  1  0  0  0
  1 28  1  0  0  0
 15 17  1  0  0  0
 16 17  1  0  0  0
 17 21  2  0  0  0
 18 19  1  0  0  0
 28 30  1  0  0  0
 19 24  1  0  0  0
 19 20  2  0  0  0
 22 24  1  0  0  0
 23 24  2  0  0  0
 20 21  1  0  0  0
  8 10  1  0  0  0
  9 10  2  0  0  0
 29 30  2  0  0  0
 31 30  1  0  0  0
 22 25  1  0  0  0
 22 26  1  0  0  0
 23 27  1  0  0  0
  8 11  1  0  0  0
  8 12  1  0  0  0
  9 13  1  0  0  0
M  END
> <minimizedAffinity>
-7.06642

$$$$
1AZ8


 32 33  0  0  0  0  0  0  0  0999 V2000
   27.4892    9.7951   19.7300 C   0  0  0  0  0  0  0  0  0  0  0  0
   29.9152    7.0318   17.6447 C   0  0  0  0  0  0  0  0  0  0  0  0
   29.1558    6.5447   18.7016 C   0  0  0  0  0  0  0  0  0  0  0  0
   28.3439    7.4290   19.4121 C   0  0  0  0  0  0  0  0  0  0  0  0
   28.3015    8.7897   19.0534 C   0  0  0  0  0  0  0  0  0  0  0  0
   29.0315    9.2507   17.9759 C   0  0  0  0  0  0  0  0  0  0  0  0
   29.8287    8.3764   17.2706 C   0  0  0  0  0  0  0  0  0  0  0  0
   31.6546    8.2668   15.6090 N   0  0  0  0  0  0  0  0  0  0  0  0
   30.2524   10.0234   15.5806 N   0  0  0  0  0  0  0  0  0  0  0  0
   30.6256    8.8997   16.1224 C   0  0  0  0  0  0  0  0  0  0  0  0
   31.9550    7.4155   16.0019 H   0  0  0  0  0  0  0  0  0  0  0  0
   32.1261    8.6434   14.8311 H   0  0  0  0  0  0  0  0  0  0  0  0
   29.4833   10.5157   15.9485 H   0  0  0  0  0  0  0  0  0  0  0  0
   28.3823   11.0003   19.9515 C   0  0  0  0  0  0  0  0  0  0  0  0
   27.6399   12.3194   19.9877 C   0  0  0  0  0  0  0  0  0  0  0  0
   27.9164   14.5341   18.8724 C   0  0  0  0  0  0  0  0  0  0  0  0
   28.1208   13.1593   18.8266 C   0  0  0  0  0  0  0  0  0  0  0  0
   28.4017   15.3378   17.8379 C   0  0  0  0  0  0  0  0  0  0  0  0
   29.0400   14.7801   16.7118 C   0  0  0  0  0  0  0  0  0  0  0  0
   29.2147   13.3868   16.6594 C   0  0  0  0  0  0  0  0  0  0  0  0
   28.7782   12.5902   17.7222 C   0  0  0  0  0  0  0  0  0  0  0  0
   29.0558   16.9510   15.4608 N   0  0  0  0  0  0  0  0  0  0  0  0
   30.3131   15.2416   14.6503 N   0  0  0  0  0  0  0  0  0  0  0  0
   29.4867   15.6924   15.5746 C   0  0  0  0  0  0  0  0  0  0  0  0
   28.4381   17.3225   16.1314 H   0  0  0  0  0  0  0  0  0  0  0  0
   29.3557   17.5077   14.7061 H   0  0  0  0  0  0  0  0  0  0  0  0
   30.6520   14.3187   14.7009 H   0  0  0  0  0  0  0  0  0  0  0  0
   26.1542   10.1339   19.0234 C   0  0  0  0  0  0  0  0  0  0  0  0
   24.4030   10.1390   20.6780 O   0  0  0  0  0  0  0  0  0  0  0  0
   24.8695    9.5926   19.6779 C   0  0  0  0  0  0  0  0  0  0  0  0
   24.2421    8.5210   19.0783 O   0  0  0  0  0  0  0  0  0  0  0  0
   24.7738    7.7434   18.0108 C   0  0  0  0  0  0  0  0  0  0  0  0
  2  3  2  0  0  0
  2  7  1  0  0  0
  3  4  1  0  0  0
  4  5  2  0  0  0
  5  6  1  0  0  0
  5  1  1  0  0  0
 31 32  1  0  0  0
  6  7  2  0  0  0
  7 10  1  0  0  0
 16 18  2  0  0  0
 14 15  1  0  0  0
 14  1  1  0  0  0
  1 28  1  0  0  0
 15 17  1  0  0  0
 16 17  1  0  0  0
 17 21  2  0  0  0
 18 19  1  0  0  0
 28 30  1  0  0  0
 19 24  1  0  0  0
 19 20  2  0  0  0
 22 24  1  0  0  0
 23 24  2  0  0  0
 20 21  1  0  0  0
  8 10  1  0  0  0
  9 10  2  0  0  0
 29 30  2  0  0  0
 31 30  1  0  0  0
 22 25  1  0  0  0
 22 26  1  0  0  0
 23 27  1  0  0  0
  8 11  1  0  0  0
  8 12  1  0  0  0
  9 13  1  0  0  0
M  END
> <minimizedAffinity>
-6.94171

$$$$
1AZ8


 32 33  0  0  0  0  0  0  0  0999 V2000
   27.2071    9.9740   18.1590 C   0  0  0  0  0  0  0  0  0  0  0  0
   23.5866    8.2736   16.7913 C   0  0  0  0  0  0  0  0  0  0  0  0
   24.4020    8.8852   15.8467 C   0  0  0  0  0  0  0  0  0  0  0  0
   25.6042    9.4572   16.2632 C   0  0  0  0  0  0  0  0  0  0  0  0
   25.9754    9.4072   17.6204 C   0  0  0  0  0  0  0  0  0  0  0  0
   25.1734    8.7613   18.5401 C   0  0  0  0  0  0  0  0  0  0  0  0
   23.9890    8.1914   18.1280 C   0  0  0  0  0  0  0  0  0  0  0  0
   23.0492    7.9004   20.3949 N   0  0  0  0  0  0  0  0  0  0  0  0
   22.3863    6.5200   18.7493 N   0  0  0  0  0  0  0  0  0  0  0  0
   23.1270    7.5163   19.1421 C   0  0  0  0  0  0  0  0  0  0  0  0
   23.5997    8.6514   20.7146 H   0  0  0  0  0  0  0  0  0  0  0  0
   22.4403    7.4375   21.0148 H   0  0  0  0  0  0  0  0  0  0  0  0
   22.4278    6.2145   17.8144 H   0  0  0  0  0  0  0  0  0  0  0  0
   26.7974   10.9942   19.2033 C   0  0  0  0  0  0  0  0  0  0  0  0
   27.9478   11.8127   19.7500 C   0  0  0  0  0  0  0  0  0  0  0  0
   29.1208   12.4117   17.6309 C   0  0  0  0  0  0  0  0  0  0  0  0
   28.3386   12.8296   18.7020 C   0  0  0  0  0  0  0  0  0  0  0  0
   29.4478   13.3197   16.6207 C   0  0  0  0  0  0  0  0  0  0  0  0
   29.0566   14.6718   16.6932 C   0  0  0  0  0  0  0  0  0  0  0  0
   28.2925   15.0924   17.7950 C   0  0  0  0  0  0  0  0  0  0  0  0
   27.9190   14.1691   18.7762 C   0  0  0  0  0  0  0  0  0  0  0  0
   30.3794   15.2951   14.6586 N   0  0  0  0  0  0  0  0  0  0  0  0
   29.0271   16.8717   15.5782 N   0  0  0  0  0  0  0  0  0  0  0  0
   29.5004   15.6404   15.6024 C   0  0  0  0  0  0  0  0  0  0  0  0
   30.7544   14.3849   14.6444 H   0  0  0  0  0  0  0  0  0  0  0  0
   30.6525   15.9507   13.9768 H   0  0  0  0  0  0  0  0  0  0  0  0
   28.3771   17.1626   16.2580 H   0  0  0  0  0  0  0  0  0  0  0  0
   28.2288    8.9326   18.6765 C   0  0  0  0  0  0  0  0  0  0  0  0
   29.4256    9.0387   16.5882 O   0  0  0  0  0  0  0  0  0  0  0  0
   29.3525    8.5255   17.7053 C   0  0  0  0  0  0  0  0  0  0  0  0
   30.2904    7.6169   18.1482 O   0  0  0  0  0  0  0  0  0  0  0  0
   30.4670    6.2980   17.6420 C   0  0  0  0  0  0  0  0  0  0  0  0
  2  3  2  0  0  0
  2  7  1  0  0  0
  3  4  1  0  0  0
  4  5  2  0  0  0
  5  6  1  0  0  0
  5  1  1  0  0  0
 31 32  1  0  0  0
  6  7  2  0  0  0
  7 10  1  0  0  0
 16 18  2  0  0  0
 14 15  1  0  0  0
 14  1  1  0  0  0
  1 28  1  0  0  0
 15 17  1  0  0  0
 16 17  1  0  0  0
 17 21  2  0  0  0
 18 19  1  0  0  0
 28 30  1  0  0  0
 19 24  1  0  0  0
 19 20  2  0  0  0
 22 24  1  0  0  0
 23 24  2  0  0  0
 20 21  1  0  0  0
  8 10  1  0  0  0
  9 10  2  0  0  0
 29 30  2  0  0  0
 31 30  1  0  0  0
 22 25  1  0  0  0
 22 26  1  0  0  0
 23 27  1  0  0  0
  8 11  1  0  0  0
  8 12  1  0  0  0
  9 13  1  0  0  0
M  END
> <minimizedAffinity>
-6.88874

$$$$
1AZ8


 32 33  0  0  0  0  0  0  0  0999 V2000
   26.8058   10.6383   18.5524 C   0  0  0  0  0  0  0  0  0  0  0  0
   29.8872   13.2684   17.3452 C   0  0  0  0  0  0  0  0  0  0  0  0
   29.9520   11.9569   16.8902 C   0  0  0  0  0  0  0  0  0  0  0  0
   28.9518   11.0616   17.2695 C   0  0  0  0  0  0  0  0  0  0  0  0
   27.8980   11.4922   18.0980 C   0  0  0  0  0  0  0  0  0  0  0  0
   27.8264   12.8082   18.5093 C   0  0  0  0  0  0  0  0  0  0  0  0
   28.8109   13.6938   18.1301 C   0  0  0  0  0  0  0  0  0  0  0  0
   28.8725   16.1436   17.8116 N   0  0  0  0  0  0  0  0  0  0  0  0
   28.4514   15.3158   19.8586 N   0  0  0  0  0  0  0  0  0  0  0  0
   28.7253   15.1067   18.6029 C   0  0  0  0  0  0  0  0  0  0  0  0
   29.0798   16.0099   16.8585 H   0  0  0  0  0  0  0  0  0  0  0  0
   28.7755   17.0550   18.1712 H   0  0  0  0  0  0  0  0  0  0  0  0
   28.3367   14.5536   20.4710 H   0  0  0  0  0  0  0  0  0  0  0  0
   26.3607    9.8244   17.3529 C   0  0  0  0  0  0  0  0  0  0  0  0
   24.9546    9.2749   17.4682 C   0  0  0  0  0  0  0  0  0  0  0  0
   23.1739    8.6121   15.8512 C   0  0  0  0  0  0  0  0  0  0  0  0
   24.5308    8.7829   16.1033 C   0  0  0  0  0  0  0  0  0  0  0  0
   22.7541    8.2125   14.5801 C   0  0  0  0  0  0  0  0  0  0  0  0
   23.6802    7.9143   13.5603 C   0  0  0  0  0  0  0  0  0  0  0  0
   25.0509    8.0598   13.8336 C   0  0  0  0  0  0  0  0  0  0  0  0
   25.4660    8.5140   15.0890 C   0  0  0  0  0  0  0  0  0  0  0  0
   21.8920    7.1097   12.0005 N   0  0  0  0  0  0  0  0  0  0  0  0
   24.0176    7.2442   11.2107 N   0  0  0  0  0  0  0  0  0  0  0  0
   23.1753    7.4113   12.2123 C   0  0  0  0  0  0  0  0  0  0  0  0
   21.2341    7.2214   12.7243 H   0  0  0  0  0  0  0  0  0  0  0  0
   21.6037    6.7756   11.1205 H   0  0  0  0  0  0  0  0  0  0  0  0
   24.9717    7.4560   11.3293 H   0  0  0  0  0  0  0  0  0  0  0  0
   27.1287    9.7798   19.7994 C   0  0  0  0  0  0  0  0  0  0  0  0
   24.9968    9.9969   20.9005 O   0  0  0  0  0  0  0  0  0  0  0  0
   26.2215    9.9775   21.0280 C   0  0  0  0  0  0  0  0  0  0  0  0
   26.8230   10.0773   22.2648 O   0  0  0  0  0  0  0  0  0  0  0  0
   27.9508   10.8900   22.5722 C   0  0  0  0  0  0  0  0  0  0  0  0
  2  3  2  0  0  0
  2  7  1  0  0  0
  3  4  1  0  0  0
  4  5  2  0  0  0
  5  6  1  0  0  0
  5  1  1  0  0  0
 31 32  1  0  0  0
  6  7  2  0  0  0
  7 10  1  0  0  0
 16 18  2  0  0  0
 14 15  1  0  0  0
 14  1  1  0  0  0
  1 28  1  0  0  0
 15 17  1  0  0  0
 16 17  1  0  0  0
 17 21  2  0  0  0
 18 19  1  0  0  0
 28 30  1  0  0  0
 19 24  1  0  0  0
 19 20  2  0  0  0
 22 24  1  0  0  0
 23 24  2  0  0  0
 20 21  1  0  0  0
  8 10  1  0  0  0
  9 10  2  0  0  0
 29 30  2  0  0  0
 31 30  1  0  0  0
 22 25  1  0  0  0
 22 26  1  0  0  0
 23 27  1  0  0  0
  8 11  1  0  0  0
  8 12  1  0  0  0
  9 13  1  0  0  0
M  END
> <minimizedAffinity>
-6.86001

$$$$
1AZ8


 32 33  0  0  0  0  0  0  0  0999 V2000
   30.0391   12.2662   18.0384 C   0  0  0  0  0  0  0  0  0  0  0  0
   26.5449   10.2526   19.3057 C   0  0  0  0  0  0  0  0  0  0  0  0
   26.7408   10.3924   17.9370 C   0  0  0  0  0  0  0  0  0  0  0  0
   27.8832   11.0519   17.4834 C   0  0  0  0  0  0  0  0  0  0  0  0
   28.8160   11.5613   18.4068 C   0  0  0  0  0  0  0  0  0  0  0  0
   28.6270   11.3796   19.7623 C   0  0  0  0  0  0  0  0  0  0  0  0
   27.5019   10.7232   20.2102 C   0  0  0  0  0  0  0  0  0  0  0  0
   27.6167   11.4797   22.5599 N   0  0  0  0  0  0  0  0  0  0  0  0
   26.7643    9.4505   22.1034 N   0  0  0  0  0  0  0  0  0  0  0  0
   27.3068   10.5560   21.6803 C   0  0  0  0  0  0  0  0  0  0  0  0
   28.0278   12.3237   22.2634 H   0  0  0  0  0  0  0  0  0  0  0  0
   27.4382   11.3284   23.5162 H   0  0  0  0  0  0  0  0  0  0  0  0
   26.5233    8.7435   21.4620 H   0  0  0  0  0  0  0  0  0  0  0  0
   30.9435   11.2497   17.3690 C   0  0  0  0  0  0  0  0  0  0  0  0
   31.6238   10.3009   18.3329 C   0  0  0  0  0  0  0  0  0  0  0  0
   34.0713   10.5767   18.7316 C   0  0  0  0  0  0  0  0  0  0  0  0
   33.0587   10.1315   17.8888 C   0  0  0  0  0  0  0  0  0  0  0  0
   35.4060   10.3805   18.3688 C   0  0  0  0  0  0  0  0  0  0  0  0
   35.7536    9.7974   17.1336 C   0  0  0  0  0  0  0  0  0  0  0  0
   34.7236    9.3786   16.2744 C   0  0  0  0  0  0  0  0  0  0  0  0
   33.3890    9.5249   16.6646 C   0  0  0  0  0  0  0  0  0  0  0  0
   37.6758    8.6838   15.9746 N   0  0  0  0  0  0  0  0  0  0  0  0
   38.1027   10.5461   17.2032 N   0  0  0  0  0  0  0  0  0  0  0  0
   37.2243    9.6717   16.7511 C   0  0  0  0  0  0  0  0  0  0  0  0
   37.0500    8.0123   15.6185 H   0  0  0  0  0  0  0  0  0  0  0  0
   38.6345    8.6268   15.7581 H   0  0  0  0  0  0  0  0  0  0  0  0
   37.8071   11.2883   17.7785 H   0  0  0  0  0  0  0  0  0  0  0  0
   29.8212   13.5495   17.2004 C   0  0  0  0  0  0  0  0  0  0  0  0
   28.8705   14.6674   19.1112 O   0  0  0  0  0  0  0  0  0  0  0  0
   29.1209   14.7252   17.9069 C   0  0  0  0  0  0  0  0  0  0  0  0
   28.8374   15.8496   17.1609 O   0  0  0  0  0  0  0  0  0  0  0  0
   27.5957   16.5462   17.1549 C   0  0  0  0  0  0  0  0  0  0  0  0
  2  3  2  0  0  0
  2  7  1  0  0  0
  3  4  1  0  0  0
  4  5  2  0  0  0
  5  6  1  0  0  0
  5  1  1  0  0  0
 31 32  1  0  0  0
  6  7  2  0  0  0
  7 10  1  0  0  0
 16 18  2  0  0  0
 14 15  1  0  0  0
 14  1  1  0  0  0
  1 28  1  0  0  0
 15 17  1  0  0  0
 16 17  1  0  0  0
 17 21  2  0  0  0
 18 19  1  0  0  0
 28 30  1  0  0  0
 19 24  1  0  0  0
 19 20  2  0  0  0
 22 24  1  0  0  0
 23 24  2  0  0  0
 20 21  1  0  0  0
  8 10  1  0  0  0
  9 10  2  0  0  0
 29 30  2  0  0  0
 31 30  1  0  0  0
 22 25  1  0  0  0
 22 26  1  0  0  0
 23 27  1  0  0  0
  8 11  1  0  0  0
  8 12  1  0  0  0
  9 13  1  0  0  0
M  END
> <minimizedAffinity>
-6.70607

$$$$
1AZ8


 32 33  0  0  0  0  0  0  0  0999 V2000
   27.7251   10.0551   19.3410 C   0  0  0  0  0  0  0  0  0  0  0  0
   31.5804    8.3228   19.2647 C   0  0  0  0  0  0  0  0  0  0  0  0
   30.8096    8.1160   20.4024 C   0  0  0  0  0  0  0  0  0  0  0  0
   29.5323    8.6736   20.4617 C   0  0  0  0  0  0  0  0  0  0  0  0
   29.0426    9.4295   19.3795 C   0  0  0  0  0  0  0  0  0  0  0  0
   29.8051    9.5926   18.2402 C   0  0  0  0  0  0  0  0  0  0  0  0
   31.0641    9.0372   18.1791 C   0  0  0  0  0  0  0  0  0  0  0  0
   33.1722    9.4717   16.9651 N   0  0  0  0  0  0  0  0  0  0  0  0
   31.2804    9.1517   15.7941 N   0  0  0  0  0  0  0  0  0  0  0  0
   31.8798    9.2432   16.9465 C   0  0  0  0  0  0  0  0  0  0  0  0
   33.6468    9.5448   17.8245 H   0  0  0  0  0  0  0  0  0  0  0  0
   33.6670    9.5698   16.1196 H   0  0  0  0  0  0  0  0  0  0  0  0
   30.3116    8.9808   15.7554 H   0  0  0  0  0  0  0  0  0  0  0  0
   27.8205   11.3235   20.1664 C   0  0  0  0  0  0  0  0  0  0  0  0
   29.1510   12.0365   20.0495 C   0  0  0  0  0  0  0  0  0  0  0  0
   29.7355   13.0726   17.8563 C   0  0  0  0  0  0  0  0  0  0  0  0
   29.0000   13.1461   19.0342 C   0  0  0  0  0  0  0  0  0  0  0  0
   29.5708   14.0565   16.8784 C   0  0  0  0  0  0  0  0  0  0  0  0
   28.7213   15.1623   17.0843 C   0  0  0  0  0  0  0  0  0  0  0  0
   28.0055   15.2445   18.2907 C   0  0  0  0  0  0  0  0  0  0  0  0
   28.1293   14.2294   19.2441 C   0  0  0  0  0  0  0  0  0  0  0  0
   27.7041   17.2077   16.0550 N   0  0  0  0  0  0  0  0  0  0  0  0
   29.4760   16.2511   15.0038 N   0  0  0  0  0  0  0  0  0  0  0  0
   28.6314   16.2478   16.0173 C   0  0  0  0  0  0  0  0  0  0  0  0
   27.0564   17.2376   16.7959 H   0  0  0  0  0  0  0  0  0  0  0  0
   27.6680   17.8855   15.3420 H   0  0  0  0  0  0  0  0  0  0  0  0
   30.1735   15.5591   14.9421 H   0  0  0  0  0  0  0  0  0  0  0  0
   27.1554   10.2814   17.9196 C   0  0  0  0  0  0  0  0  0  0  0  0
   24.8781    9.5335   18.1630 O   0  0  0  0  0  0  0  0  0  0  0  0
   25.9275    9.4396   17.5255 C   0  0  0  0  0  0  0  0  0  0  0  0
   26.0308    8.6283   16.4152 O   0  0  0  0  0  0  0  0  0  0  0  0
   27.2372    8.0608   15.9156 C   0  0  0  0  0  0  0  0  0  0  0  0
  2  3  2  0  0  0
  2  7  1  0  0  0
  3  4  1  0  0  0
  4  5  2  0  0  0
  5  6  1  0  0  0
  5  1  1  0  0  0
 31 32  1  0  0  0
  6  7  2  0  0  0
  7 10  1  0  0  0
 16 18  2  0  0  0
 14 15  1  0  0  0
 14  1  1  0  0  0
  1 28  1  0  0  0
 15 17  1  0  0  0
 16 17  1  0  0  0
 17 21  2  0  0  0
 18 19  1  0  0  0
 28 30  1  0  0  0
 19 24  1  0  0  0
 19 20  2  0  0  0
 22 24  1  0  0  0
 23 24  2  0  0  0
 20 21  1  0  0  0
  8 10  1  0  0  0
  9 10  2  0  0  0
 29 30  2  0  0  0
 31 30  1  0  0  0
 22 25  1  0  0  0
 22 26  1  0  0  0
 23 27  1  0  0  0
  8 11  1  0  0  0
  8 12  1  0  0  0
  9 13  1  0  0  0
M  END
> <minimizedAffinity>
-6.62503

$$$$
1AZ8


 32 33  0  0  0  0  0  0  0  0999 V2000
   30.1886    9.4015   19.2602 C   0  0  0  0  0  0  0  0  0  0  0  0
   34.2244    8.1454   19.3260 C   0  0  0  0  0  0  0  0  0  0  0  0
   33.3401    7.4987   20.1809 C   0  0  0  0  0  0  0  0  0  0  0  0
   32.0006    7.8880   20.1856 C   0  0  0  0  0  0  0  0  0  0  0  0
   31.5635    8.9189   19.3321 C   0  0  0  0  0  0  0  0  0  0  0  0
   32.4462    9.5245   18.4601 C   0  0  0  0  0  0  0  0  0  0  0  0
   33.7677    9.1362   18.4512 C   0  0  0  0  0  0  0  0  0  0  0  0
   35.5994   10.7018   17.9031 N   0  0  0  0  0  0  0  0  0  0  0  0
   34.6678    9.4873   16.2570 N   0  0  0  0  0  0  0  0  0  0  0  0
   34.7093    9.8183   17.5156 C   0  0  0  0  0  0  0  0  0  0  0  0
   35.6494   10.9676   18.8497 H   0  0  0  0  0  0  0  0  0  0  0  0
   36.2169   11.0987   17.2470 H   0  0  0  0  0  0  0  0  0  0  0  0
   34.0086    8.8267   15.9432 H   0  0  0  0  0  0  0  0  0  0  0  0
   30.2517   10.8202   18.7288 C   0  0  0  0  0  0  0  0  0  0  0  0
   29.3748   11.7994   19.4802 C   0  0  0  0  0  0  0  0  0  0  0  0
   28.3292   14.0250   19.0573 C   0  0  0  0  0  0  0  0  0  0  0  0
   29.1466   13.0008   18.5917 C   0  0  0  0  0  0  0  0  0  0  0  0
   28.1483   15.1705   18.2783 C   0  0  0  0  0  0  0  0  0  0  0  0
   28.7248   15.2866   16.9974 C   0  0  0  0  0  0  0  0  0  0  0  0
   29.5241   14.2332   16.5220 C   0  0  0  0  0  0  0  0  0  0  0  0
   29.7494   13.1124   17.3268 C   0  0  0  0  0  0  0  0  0  0  0  0
   29.2794   16.9548   15.2120 N   0  0  0  0  0  0  0  0  0  0  0  0
   27.3362   17.2222   16.3577 N   0  0  0  0  0  0  0  0  0  0  0  0
   28.4379   16.5251   16.1554 C   0  0  0  0  0  0  0  0  0  0  0  0
   30.1118   16.4607   15.0326 H   0  0  0  0  0  0  0  0  0  0  0  0
   29.0675   17.7659   14.6958 H   0  0  0  0  0  0  0  0  0  0  0  0
   26.6919   16.9360   17.0449 H   0  0  0  0  0  0  0  0  0  0  0  0
   29.2199    8.4865   18.4723 C   0  0  0  0  0  0  0  0  0  0  0  0
   27.5013    8.7055   20.1465 O   0  0  0  0  0  0  0  0  0  0  0  0
   27.7670    8.4202   18.9784 C   0  0  0  0  0  0  0  0  0  0  0  0
   26.7829    8.0853   18.0724 O   0  0  0  0  0  0  0  0  0  0  0  0
   26.9187    8.1158   16.6555 C   0  0  0  0  0  0  0  0  0  0  0  0
  2  3  2  0  0  0
  2  7  1  0  0  0
  3  4  1  0  0  0
  4  5  2  0  0  0
  5  6  1  0  0  0
  5  1  1  0  0  0
 31 32  1  0  0  0
  6  7  2  0  0  0
  7 10  1  0  0  0
 16 18  2  0  0  0
 14 15  1  0  0  0
 14  1  1  0  0  0
  1 28  1  0  0  0
 15 17  1  0  0  0
 16 17  1  0  0  0
 17 21  2  0  0  0
 18 19  1  0  0  0
 28 30  1  0  0  0
 19 24  1  0  0  0
 19 20  2  0  0  0
 22 24  1  0  0  0
 23 24  2  0  0  0
 20 21  1  0  0  0
  8 10  1  0  0  0
  9 10  2  0  0  0
 29 30  2  0  0  0
 31 30  1  0  0  0
 22 25  1  0  0  0
 22 26  1  0  0  0
 23 27  1  0  0  0
  8 11  1  0  0  0
  8 12  1  0  0  0
  9 13  1  0  0  0
M  END
> <minimizedAffinity>
-6.54820

$$$$
1AZ8


 32 33  0  0  0  0  0  0  0  0999 V2000
   26.8321   10.6409   20.3659 C   0  0  0  0  0  0  0  0  0  0  0  0
   29.2786    8.6614   23.1883 C   0  0  0  0  0  0  0  0  0  0  0  0
   28.3295    9.5506   23.6779 C   0  0  0  0  0  0  0  0  0  0  0  0
   27.5052   10.2217   22.7745 C   0  0  0  0  0  0  0  0  0  0  0  0
   27.6407    9.9917   21.3921 C   0  0  0  0  0  0  0  0  0  0  0  0
   28.5615    9.0757   20.9238 C   0  0  0  0  0  0  0  0  0  0  0  0
   29.3715    8.4086   21.8161 C   0  0  0  0  0  0  0  0  0  0  0  0
   30.1231    6.6017   20.3072 N   0  0  0  0  0  0  0  0  0  0  0  0
   31.5703    7.4531   21.8017 N   0  0  0  0  0  0  0  0  0  0  0  0
   30.3743    7.4381   21.2872 C   0  0  0  0  0  0  0  0  0  0  0  0
   29.2261    6.5725   19.9027 H   0  0  0  0  0  0  0  0  0  0  0  0
   30.8319    6.0036   19.9767 H   0  0  0  0  0  0  0  0  0  0  0  0
   31.7819    8.0720   22.5375 H   0  0  0  0  0  0  0  0  0  0  0  0
   27.2419   12.1006   20.3464 C   0  0  0  0  0  0  0  0  0  0  0  0
   28.7231   12.3221   20.1237 C   0  0  0  0  0  0  0  0  0  0  0  0
   28.5838   14.5048   18.9232 C   0  0  0  0  0  0  0  0  0  0  0  0
   28.8895   13.1493   18.8696 C   0  0  0  0  0  0  0  0  0  0  0  0
   28.7829   15.3014   17.7929 C   0  0  0  0  0  0  0  0  0  0  0  0
   29.2272   14.7499   16.5743 C   0  0  0  0  0  0  0  0  0  0  0  0
   29.5041   13.3733   16.5208 C   0  0  0  0  0  0  0  0  0  0  0  0
   29.3578   12.5887   17.6686 C   0  0  0  0  0  0  0  0  0  0  0  0
   29.7884   15.1863   14.1717 N   0  0  0  0  0  0  0  0  0  0  0  0
   29.0605   16.9299   15.4327 N   0  0  0  0  0  0  0  0  0  0  0  0
   29.3589   15.6475   15.3488 C   0  0  0  0  0  0  0  0  0  0  0  0
   30.0207   14.2350   14.0707 H   0  0  0  0  0  0  0  0  0  0  0  0
   29.8728   15.7977   13.4046 H   0  0  0  0  0  0  0  0  0  0  0  0
   28.7406   17.3062   16.2843 H   0  0  0  0  0  0  0  0  0  0  0  0
   26.8829    9.9637   18.9748 C   0  0  0  0  0  0  0  0  0  0  0  0
   24.6706    9.0473   19.2405 O   0  0  0  0  0  0  0  0  0  0  0  0
   25.5676    9.3544   18.4547 C   0  0  0  0  0  0  0  0  0  0  0  0
   25.4149    9.2174   17.0911 O   0  0  0  0  0  0  0  0  0  0  0  0
   26.3459    8.5925   16.2137 C   0  0  0  0  0  0  0  0  0  0  0  0
  2  3  2  0  0  0
  2  7  1  0  0  0
  3  4  1  0  0  0
  4  5  2  0  0  0
  5  6  1  0  0  0
  5  1  1  0  0  0
 31 32  1  0  0  0
  6  7  2  0  0  0
  7 10  1  0  0  0
 16 18  2  0  0  0
 14 15  1  0  0  0
 14  1  1  0  0  0
  1 28  1  0  0  0
 15 17  1  0  0  0
 16 17  1  0  0  0
 17 21  2  0  0  0
 18 19  1  0  0  0
 28 30  1  0  0  0
 19 24  1  0  0  0
 19 20  2  0  0  0
 22 24  1  0  0  0
 23 24  2  0  0  0
 20 21  1  0  0  0
  8 10  1  0  0  0
  9 10  2  0  0  0
 29 30  2  0  0  0
 31 30  1  0  0  0
 22 25  1  0  0  0
 22 26  1  0  0  0
 23 27  1  0  0  0
  8 11  1  0  0  0
  8 12  1  0  0  0
  9 13  1  0  0  0
M  END
> <minimizedAffinity>
-6.52730

$$$$
1AZ8


 32 33  0  0  0  0  0  0  0  0999 V2000
   28.0635   11.1587   19.1780 C   0  0  0  0  0  0  0  0  0  0  0  0
   28.2422    9.3048   22.9729 C   0  0  0  0  0  0  0  0  0  0  0  0
   28.2072    8.4759   21.8580 C   0  0  0  0  0  0  0  0  0  0  0  0
   28.1477    9.0540   20.5899 C   0  0  0  0  0  0  0  0  0  0  0  0
   28.1261   10.4552   20.4546 C   0  0  0  0  0  0  0  0  0  0  0  0
   28.2014   11.2655   21.5700 C   0  0  0  0  0  0  0  0  0  0  0  0
   28.2661   10.6948   22.8220 C   0  0  0  0  0  0  0  0  0  0  0  0
   29.4055   12.2436   24.3743 N   0  0  0  0  0  0  0  0  0  0  0  0
   27.2371   11.7554   24.7100 N   0  0  0  0  0  0  0  0  0  0  0  0
   28.3258   11.5890   24.0154 C   0  0  0  0  0  0  0  0  0  0  0  0
   30.2403   12.1336   23.8643 H   0  0  0  0  0  0  0  0  0  0  0  0
   29.3804   12.8446   25.1537 H   0  0  0  0  0  0  0  0  0  0  0  0
   26.4151   11.2749   24.4595 H   0  0  0  0  0  0  0  0  0  0  0  0
   26.7386   10.7881   18.5405 C   0  0  0  0  0  0  0  0  0  0  0  0
   26.8721    9.9924   17.2593 C   0  0  0  0  0  0  0  0  0  0  0  0
   25.0470    9.2510   15.7281 C   0  0  0  0  0  0  0  0  0  0  0  0
   25.5659    9.2708   17.0181 C   0  0  0  0  0  0  0  0  0  0  0  0
   23.8708    8.5432   15.4692 C   0  0  0  0  0  0  0  0  0  0  0  0
   23.1586    7.8991   16.5009 C   0  0  0  0  0  0  0  0  0  0  0  0
   23.6741    7.9505   17.8071 C   0  0  0  0  0  0  0  0  0  0  0  0
   24.8809    8.6119   18.0536 C   0  0  0  0  0  0  0  0  0  0  0  0
   21.6714    5.8882   16.3508 N   0  0  0  0  0  0  0  0  0  0  0  0
   20.8251    7.8939   15.7021 N   0  0  0  0  0  0  0  0  0  0  0  0
   21.8411    7.2015   16.1805 C   0  0  0  0  0  0  0  0  0  0  0  0
   22.4071    5.3386   16.7056 H   0  0  0  0  0  0  0  0  0  0  0  0
   20.8104    5.4693   16.1215 H   0  0  0  0  0  0  0  0  0  0  0  0
   20.9128    8.8646   15.5630 H   0  0  0  0  0  0  0  0  0  0  0  0
   28.3043   12.6853   19.2657 C   0  0  0  0  0  0  0  0  0  0  0  0
   30.5130   12.7220   18.3040 O   0  0  0  0  0  0  0  0  0  0  0  0
   29.4085   13.2636   18.3613 C   0  0  0  0  0  0  0  0  0  0  0  0
   29.0999   14.3637   17.5893 O   0  0  0  0  0  0  0  0  0  0  0  0
   28.2019   15.4057   17.9568 C   0  0  0  0  0  0  0  0  0  0  0  0
  2  3  2  0  0  0
  2  7  1  0  0  0
  3  4  1  0  0  0
  4  5  2  0  0  0
  5  6  1  0  0  0
  5  1  1  0  0  0
 31 32  1  0  0  0
  6  7  2  0  0  0
  7 10  1  0  0  0
 16 18  2  0  0  0
 14 15  1  0  0  0
 14  1  1  0  0  0
  1 28  1  0  0  0
 15 17  1  0  0  0
 16 17  1  0  0  0
 17 21  2  0  0  0
 18 19  1  0  0  0
 28 30  1  0  0  0
 19 24  1  0  0  0
 19 20  2  0  0  0
 22 24  1  0  0  0
 23 24  2  0  0  0
 20 21  1  0  0  0
  8 10  1  0  0  0
  9 10  2  0  0  0
 29 30  2  0  0  0
 31 30  1  0  0  0
 22 25  1  0  0  0
 22 26  1  0  0  0
 23 27  1  0  0  0
  8 11  1  0  0  0
  8 12  1  0  0  0
  9 13  1  0  0  0
M  END
> <minimizedAffinity>
-6.50773

$$$$
1AZ8


 32 33  0  0  0  0  0  0  0  0999 V2000
   27.0287   10.4008   20.2090 C   0  0  0  0  0  0  0  0  0  0  0  0
   26.3347    8.8057   24.0618 C   0  0  0  0  0  0  0  0  0  0  0  0
   27.5646    9.4109   23.8329 C   0  0  0  0  0  0  0  0  0  0  0  0
   27.8277    9.9477   22.5726 C   0  0  0  0  0  0  0  0  0  0  0  0
   26.8543    9.8734   21.5580 C   0  0  0  0  0  0  0  0  0  0  0  0
   25.6225    9.3044   21.8128 C   0  0  0  0  0  0  0  0  0  0  0  0
   25.3605    8.7794   23.0590 C   0  0  0  0  0  0  0  0  0  0  0  0
   23.3441    7.5223   22.3805 N   0  0  0  0  0  0  0  0  0  0  0  0
   23.5478    8.1954   24.5155 N   0  0  0  0  0  0  0  0  0  0  0  0
   24.0301    8.1502   23.3068 C   0  0  0  0  0  0  0  0  0  0  0  0
   23.6889    7.4751   21.4596 H   0  0  0  0  0  0  0  0  0  0  0  0
   22.4847    7.0985   22.6067 H   0  0  0  0  0  0  0  0  0  0  0  0
   24.0447    8.6607   25.2266 H   0  0  0  0  0  0  0  0  0  0  0  0
   27.3139   11.8830   20.3537 C   0  0  0  0  0  0  0  0  0  0  0  0
   28.7745   12.2483   20.1933 C   0  0  0  0  0  0  0  0  0  0  0  0
   29.7153   12.7917   17.9473 C   0  0  0  0  0  0  0  0  0  0  0  0
   28.8977   13.1744   19.0050 C   0  0  0  0  0  0  0  0  0  0  0  0
   29.8014   13.6039   16.8139 C   0  0  0  0  0  0  0  0  0  0  0  0
   29.1270   14.8395   16.7424 C   0  0  0  0  0  0  0  0  0  0  0  0
   28.3275   15.2328   17.8290 C   0  0  0  0  0  0  0  0  0  0  0  0
   28.1984   14.3919   18.9385 C   0  0  0  0  0  0  0  0  0  0  0  0
   28.9474   17.0090   15.5019 N   0  0  0  0  0  0  0  0  0  0  0  0
   29.8292   15.2233   14.4094 N   0  0  0  0  0  0  0  0  0  0  0  0
   29.3110   15.7244   15.5144 C   0  0  0  0  0  0  0  0  0  0  0  0
   28.5569   17.4180   16.3078 H   0  0  0  0  0  0  0  0  0  0  0  0
   29.0698   17.5473   14.6867 H   0  0  0  0  0  0  0  0  0  0  0  0
   30.1091   14.2799   14.3808 H   0  0  0  0  0  0  0  0  0  0  0  0
   28.0732    9.6493   19.3483 C   0  0  0  0  0  0  0  0  0  0  0  0
   27.1422    8.6692   17.3540 O   0  0  0  0  0  0  0  0  0  0  0  0
   27.5521    8.4752   18.4988 C   0  0  0  0  0  0  0  0  0  0  0  0
   27.6111    7.2094   19.0427 O   0  0  0  0  0  0  0  0  0  0  0  0
   26.5058    6.4849   19.5722 C   0  0  0  0  0  0  0  0  0  0  0  0
  2  3  2  0  0  0
  2  7  1  0  0  0
  3  4  1  0  0  0
  4  5  2  0  0  0
  5  6  1  0  0  0
  5  1  1  0  0  0
 31 32  1  0  0  0
  6  7  2  0  0  0
  7 10  1  0  0  0
 16 18  2  0  0  0
 14 15  1  0  0  0
 14  1  1  0  0  0
  1 28  1  0  0  0
 15 17  1  0  0  0
 16 17  1  0  0  0
 17 21  2  0  0  0
 18 19  1  0  0  0
 28 30  1  0  0  0
 19 24  1  0  0  0
 19 20  2  0  0  0
 22 24  1  0  0  0
 23 24  2  0  0  0
 20 21  1  0  0  0
  8 10  1  0  0  0
  9 10  2  0  0  0
 29 30  2  0  0  0
 31 30  1  0  0  0
 22 25  1  0  0  0
 22 26  1  0  0  0
 23 27  1  0  0  0
  8 11  1  0  0  0
  8 12  1  0  0  0
  9 13  1  0  0  0
M  END
> <minimizedAffinity>
-6.49782

$$$$
1AZ8


 32 33  0  0  0  0  0  0  0  0999 V2000
   30.9403   10.7187   18.5713 C   0  0  0  0  0  0  0  0  0  0  0  0
   28.1045   13.8537   18.5503 C   0  0  0  0  0  0  0  0  0  0  0  0
   27.9591   12.8673   19.5183 C   0  0  0  0  0  0  0  0  0  0  0  0
   28.8770   11.8175   19.5541 C   0  0  0  0  0  0  0  0  0  0  0  0
   29.9302   11.7703   18.6210 C   0  0  0  0  0  0  0  0  0  0  0  0
   30.0843   12.7788   17.6907 C   0  0  0  0  0  0  0  0  0  0  0  0
   29.1814   13.8185   17.6589 C   0  0  0  0  0  0  0  0  0  0  0  0
   29.1210   16.1578   16.8647 N   0  0  0  0  0  0  0  0  0  0  0  0
   29.7974   14.5409   15.4574 N   0  0  0  0  0  0  0  0  0  0  0  0
   29.3544   14.8873   16.6318 C   0  0  0  0  0  0  0  0  0  0  0  0
   28.7857   16.4434   17.7452 H   0  0  0  0  0  0  0  0  0  0  0  0
   29.2813   16.8253   16.1589 H   0  0  0  0  0  0  0  0  0  0  0  0
   29.9797   13.5938   15.2597 H   0  0  0  0  0  0  0  0  0  0  0  0
   30.2831    9.4578   19.0981 C   0  0  0  0  0  0  0  0  0  0  0  0
   29.9836    8.4267   18.0307 C   0  0  0  0  0  0  0  0  0  0  0  0
   28.0318    8.5096   16.4786 C   0  0  0  0  0  0  0  0  0  0  0  0
   28.4916    8.4236   17.7882 C   0  0  0  0  0  0  0  0  0  0  0  0
   26.6593    8.4520   16.2248 C   0  0  0  0  0  0  0  0  0  0  0  0
   25.7208    8.3734   17.2735 C   0  0  0  0  0  0  0  0  0  0  0  0
   26.1934    8.3182   18.5957 C   0  0  0  0  0  0  0  0  0  0  0  0
   27.5693    8.3192   18.8438 C   0  0  0  0  0  0  0  0  0  0  0  0
   23.7380    9.0425   15.8955 N   0  0  0  0  0  0  0  0  0  0  0  0
   23.3779    7.7520   17.7298 N   0  0  0  0  0  0  0  0  0  0  0  0
   24.2310    8.3873   16.9492 C   0  0  0  0  0  0  0  0  0  0  0  0
   24.3439    9.5283   15.2904 H   0  0  0  0  0  0  0  0  0  0  0  0
   22.7687    9.0400   15.7237 H   0  0  0  0  0  0  0  0  0  0  0  0
   23.7043    7.2578   18.5163 H   0  0  0  0  0  0  0  0  0  0  0  0
   31.6185   10.5349   17.1920 C   0  0  0  0  0  0  0  0  0  0  0  0
   33.5481    9.3900   16.3142 O   0  0  0  0  0  0  0  0  0  0  0  0
   33.1009   10.1178   17.2012 C   0  0  0  0  0  0  0  0  0  0  0  0
   33.9080   10.6263   18.1969 O   0  0  0  0  0  0  0  0  0  0  0  0
   35.3260   10.5111   18.2510 C   0  0  0  0  0  0  0  0  0  0  0  0
  2  3  2  0  0  0
  2  7  1  0  0  0
  3  4  1  0  0  0
  4  5  2  0  0  0
  5  6  1  0  0  0
  5  1  1  0  0  0
 31 32  1  0  0  0
  6  7  2  0  0  0
  7 10  1  0  0  0
 16 18  2  0  0  0
 14 15  1  0  0  0
 14  1  1  0  0  0
  1 28  1  0  0  0
 15 17  1  0  0  0
 16 17  1  0  0  0
 17 21  2  0  0  0
 18 19  1  0  0  0
 28 30  1  0  0  0
 19 24  1  0  0  0
 19 20  2  0  0  0
 22 24  1  0  0  0
 23 24  2  0  0  0
 20 21  1  0  0  0
  8 10  1  0  0  0
  9 10  2  0  0  0
 29 30  2  0  0  0
 31 30  1  0  0  0
 22 25  1  0  0  0
 22 26  1  0  0  0
 23 27  1  0  0  0
  8 11  1  0  0  0
  8 12  1  0  0  0
  9 13  1  0  0  0
M  END
> <minimizedAffinity>
-6.44477

$$$$
