# created with PyMOL 2.5.7
@<TRIPOS>MOLECULE
1NDZ
37 41 1                 
SMALL
USER_CHARGES
@<TRIPOS>ATOM
1	  C1	51.262	54.394	21.046	C.2	1	FR51001	0.000	
2	  N1	48.440	52.484	17.557	N.pl3	1	FR51001	0.000	
3	  O1	47.607	51.515	15.784	O.2	1	FR51001	0.000	
4	  C2	48.295	51.518	16.783	C.2	1	FR51001	0.000	
5	  N2	51.238	55.323	22.073	N.2	1	FR51001	0.000	
6	  C3	51.155	54.596	23.229	C.2	1	FR51001	0.000	
7	  C4	49.144	50.282	17.124	C.3	1	FR51001	0.000	
8	  N4	51.026	53.356	23.016	N.2	1	FR51001	0.000	
9	  C5	51.019	53.233	21.600	C.2	1	FR51001	0.000	
10	  C6	48.586	48.902	16.698	C.3	1	FR51001	0.000	
11	  C7	46.004	47.439	15.925	C.3	1	FR51001	0.000	
12	  C8	50.831	51.983	20.866	C.2	1	FR51001	0.000	
13	  C9	44.601	47.619	21.132	C.2	1	FR51001	0.000	
14	  O9	50.577	51.951	19.632	O.2	1	FR51001	0.000	
15	 C10	46.266	48.327	19.489	C.2	1	FR51001	0.000	
16	 N10	50.847	50.909	21.641	N.pl3	1	FR51001	0.000	
17	 C11	44.409	47.058	18.717	C.2	1	FR51001	0.000	
18	 N11	47.405	48.885	18.948	N.2	1	FR51001	0.000	
19	 C12	47.417	48.580	17.642	C.2	1	FR51001	0.000	
20	 C13	51.141	56.802	21.888	C.3	1	FR51001	0.000	
21	 N13	46.346	47.893	17.260	N.2	1	FR51001	0.000	
22	 C14	52.518	57.604	21.793	C.3	1	FR51001	0.000	
23	 C15	45.828	48.211	20.793	C.2	1	FR51001	0.000	
24	 O15	53.600	57.321	22.690	O.3	1	FR51001	0.000	
25	 C16	45.627	47.631	18.438	C.2	1	FR51001	0.000	
26	 C17	43.935	46.996	20.078	C.2	1	FR51001	0.000	
27	 C18	50.371	57.194	20.629	C.3	1	FR51001	0.000	
28	 C19	48.892	56.616	20.612	C.3	1	FR51001	0.000	
29	 N22	48.232	56.768	19.201	N.2	1	FR51001	0.000	
30	 C27	47.764	57.934	18.695	C.2	1	FR51001	0.000	
31	 C28	47.213	57.692	17.517	C.2	1	FR51001	0.000	
32	 C29	47.337	56.252	17.328	C.2	1	FR51001	0.000	
33	 C30	48.067	55.738	18.378	C.2	1	FR51001	0.000	
34	 C31	47.121	55.474	16.261	C.2	1	FR51001	0.000	
35	 C32	47.463	54.210	16.308	C.2	1	FR51001	0.000	
36	 C33	48.120	53.712	17.391	C.2	1	FR51001	0.000	
37	 C34	48.374	54.478	18.459	C.2	1	FR51001	0.000	
@<TRIPOS>BOND
1 1 5 ar
2 1 9 ar
3 2 4 1
4 3 4 2
5 4 7 1
6 5 6 ar
7 5 20 1
8 6 8 ar
9 7 10 1
10 8 9 ar
11 9 12 1
12 10 19 1
13 12 14 2
14 12 16 1
15 13 23 ar
16 13 26 ar
17 15 18 ar
18 15 25 ar
19 17 26 ar
20 18 19 ar
21 19 21 ar
22 20 22 1
23 20 27 1
24 11 21 1
25 22 24 1
26 15 23 ar
27 17 25 ar
28 21 25 ar
29 27 28 1
30 28 29 1
31 29 30 ar
32 29 33 ar
33 30 31 ar
34 31 32 ar
35 32 33 ar
36 32 34 ar
37 33 37 ar
38 34 35 ar
39 35 36 ar
40 2 36 1
41 36 37 ar
@<TRIPOS>SUBSTRUCTURE
1	FR51001	1	GROUP	1 A	FR5
