@<TRIPOS>MOLECULE
1NDZ
 66 70 0 0 0
SMALL
USER_CHARGES

@<TRIPOS>ATOM
      1 C1         51.2620   54.3940   21.0460 C.ar    1  FR510011    0.0368
      2 N1         48.4400   52.4840   17.5570 N.am    1  FR510011   -0.2854
      3 O1         47.6070   51.5150   15.7840 O.2     1  FR510011   -0.2755
      4 C2         48.2950   51.5180   16.7830 C.2     1  FR510011    0.2176
      5 N2         51.2380   55.3230   22.0730 N.ar    1  FR510011   -0.3308
      6 C3         51.1550   54.5960   23.2290 C.ar    1  FR510011    0.0971
      7 C4         49.1440   50.2820   17.1240 C.3     1  FR510011    0.0311
      8 N4         51.0260   53.3560   23.0160 N.ar    1  FR510011   -0.2311
      9 C5         51.0190   53.2330   21.6000 C.ar    1  FR510011    0.1428
     10 C6         48.5860   48.9020   16.6980 C.3     1  FR510011    0.0139
     11 C7         46.0040   47.4390   15.9250 C.3     1  FR510011    0.0135
     12 C8         50.8310   51.9830   20.8660 C.2     1  FR510011    0.2613
     13 C9         44.6010   47.6190   21.1320 C.ar    1  FR510011   -0.0596
     14 O9         50.5770   51.9510   19.6320 O.2     1  FR510011   -0.2687
     15 C10        46.2660   48.3270   19.4890 C.ar    1  FR510011    0.0893
     16 N10        50.8470   50.9090   21.6410 N.am    1  FR510011   -0.3240
     17 C11        44.4090   47.0580   18.7170 C.ar    1  FR510011   -0.0361
     18 N11        47.4050   48.8850   18.9480 N.ar    1  FR510011   -0.2323
     19 C12        47.4170   48.5800   17.6420 C.ar    1  FR510011    0.1110
     20 C13        51.1410   56.8020   21.8880 C.3     1  FR510011    0.0600
     21 N13        46.3460   47.8930   17.2600 N.ar    1  FR510011   -0.3306
     22 C14        52.5180   57.6040   21.7930 C.3     1  FR510011    0.0650
     23 C15        45.8280   48.2110   20.7930 C.ar    1  FR510011   -0.0342
     24 O15        53.6000   57.3210   22.6900 O.3     1  FR510011   -0.3930
     25 C16        45.6270   47.6310   18.4380 C.ar    1  FR510011    0.0686
     26 C17        43.9350   46.9960   20.0780 C.ar    1  FR510011   -0.0597
     27 C18        50.3710   57.1940   20.6290 C.3     1  FR510011   -0.0119
     28 C19        48.8920   56.6160   20.6120 C.3     1  FR510011    0.0252
     29 N22        48.2320   56.7680   19.2010 N.ar    1  FR510011   -0.3465
     30 C27        47.7640   57.9340   18.6950 C.ar    1  FR510011    0.0057
     31 C28        47.2130   57.6920   17.5170 C.ar    1  FR510011   -0.0364
     32 C29        47.3370   56.2520   17.3280 C.ar    1  FR510011   -0.0000
     33 C30        48.0670   55.7380   18.3780 C.ar    1  FR510011    0.0508
     34 C31        47.1210   55.4740   16.2610 C.ar    1  FR510011   -0.0508
     35 C32        47.4630   54.2100   16.3080 C.ar    1  FR510011   -0.0398
     36 C33        48.1200   53.7120   17.3910 C.ar    1  FR510011    0.0354
     37 C34        48.3740   54.4780   18.4590 C.ar    1  FR510011   -0.0164
     38 H          51.4363   54.5796   20.0459 H       1  FR510011    0.0833
     39 H          48.8616   52.2718   18.4210 H       1  FR510011    0.1548
     40 H          51.1935   55.0138   24.1719 H       1  FR510011    0.1029
     41 H          49.2734   50.2632   18.1860 H       1  FR510011    0.0363
     42 H          50.0452   50.4017   16.5597 H       1  FR510011    0.0363
     43 H          49.3466   48.1547   16.7866 H       1  FR510011    0.0348
     44 H          48.2605   48.9195   15.6789 H       1  FR510011    0.0348
     45 H          46.7359   47.7932   15.2294 H       1  FR510011    0.0456
     46 H          45.0413   47.8196   15.6545 H       1  FR510011    0.0456
     47 H          45.9827   46.3694   15.9066 H       1  FR510011    0.0456
     48 H          44.2203   47.6433   22.0909 H       1  FR510011    0.0618
     49 H          51.0526   50.9968   22.5998 H       1  FR510011    0.1453
     50 H          50.6533   50.0229   21.2583 H       1  FR510011    0.1453
     51 H          43.8334   46.6720   17.9523 H       1  FR510011    0.0639
     52 H          50.6379   57.0766   22.7915 H       1  FR510011    0.0551
     53 H          52.2773   58.6384   21.9232 H       1  FR510011    0.0578
     54 H          52.9081   57.2910   20.8471 H       1  FR510011    0.0578
     55 H          46.4275   48.5746   21.5502 H       1  FR510011    0.0639
     56 H          53.3464   57.5721   23.5919 H       1  FR510011    0.2095
     57 H          43.0699   46.4704   20.2789 H       1  FR510011    0.0618
     58 H          50.8956   56.8179   19.7756 H       1  FR510011    0.0303
     59 H          50.3016   58.2616   20.6112 H       1  FR510011    0.0303
     60 H          48.3030   57.1472   21.3302 H       1  FR510011    0.0492
     61 H          48.9364   55.5740   20.8510 H       1  FR510011    0.0492
     62 H          47.8268   58.8571   19.1522 H       1  FR510011    0.0809
     63 H          46.7873   58.3752   16.8712 H       1  FR510011    0.0639
     64 H          46.6893   55.8657   15.4094 H       1  FR510011    0.0625
     65 H          47.2325   53.5874   15.5179 H       1  FR510011    0.0636
     66 H          48.7972   54.0832   19.3134 H       1  FR510011    0.0657
@<TRIPOS>BOND
     1     1     5   ar
     2     1     9   ar
     3     2     4   am
     4     3     4    2
     5     4     7    1
     6     5     6   ar
     7     5    20    1
     8     6     8   ar
     9     7    10    1
    10     8     9   ar
    11     9    12    1
    12    10    19    1
    13    12    14    2
    14    12    16   am
    15    13    23   ar
    16    13    26   ar
    17    15    18   ar
    18    15    25   ar
    19    17    26   ar
    20    18    19   ar
    21    19    21   ar
    22    20    22    1
    23    20    27    1
    24    11    21    1
    25    22    24    1
    26    15    23   ar
    27    17    25   ar
    28    21    25   ar
    29    27    28    1
    30    28    29    1
    31    29    30   ar
    32    29    33   ar
    33    30    31   ar
    34    31    32   ar
    35    32    33   ar
    36    32    34   ar
    37    33    37   ar
    38    34    35   ar
    39    35    36   ar
    40     2    36    1
    41    36    37   ar
    42     1    38    1
    43     2    39    1
    44     6    40    1
    45     7    41    1
    46     7    42    1
    47    10    43    1
    48    10    44    1
    49    11    45    1
    50    11    46    1
    51    11    47    1
    52    13    48    1
    53    16    49    1
    54    16    50    1
    55    17    51    1
    56    20    52    1
    57    22    53    1
    58    22    54    1
    59    23    55    1
    60    24    56    1
    61    26    57    1
    62    27    58    1
    63    27    59    1
    64    28    60    1
    65    28    61    1
    66    30    62    1
    67    31    63    1
    68    34    64    1
    69    35    65    1
    70    37    66    1
