
 OpenBabel10302317323D

 65 69  0  0  1  0  0  0  0  0999 V2000
   45.7370   47.0380   17.1050 C   0  0  0  0  0  0  0  0  0  0  0  0
   49.1570   55.7300   18.7650 N   0  0  0  0  0  0  0  0  0  0  0  0
   47.3010   55.8430   19.9130 O   0  0  0  0  0  0  0  0  0  0  0  0
   48.0830   56.2720   19.0920 C   0  0  0  0  0  0  0  0  0  0  0  0
   46.3720   48.1020   17.7230 N   0  0  0  0  0  0  0  0  0  0  0  0
   45.5430   48.4890   18.7400 C   0  0  0  0  0  0  0  0  0  0  0  0
   47.8180   57.6350   18.4300 C   0  0  0  0  0  0  0  0  0  0  0  0
   44.4490   47.8540   18.7450 N   0  0  0  0  0  0  0  0  0  0  0  0
   44.5440   46.9670   17.6380 C   0  0  0  0  0  0  0  0  0  0  0  0
   46.3400   58.0310   18.1960 C   0  0  0  0  0  0  0  0  0  0  0  0
   46.9420   55.7640   16.2210 C   0  0  0  0  0  0  0  0  0  0  0  0
   43.4870   46.0590   17.1960 C   0  0  0  0  0  0  0  0  0  0  0  0
   44.7950   58.8550   12.3550 C   0  0  0  0  0  0  0  0  0  0  0  0
   42.7770   46.2870   16.1800 O   0  0  0  0  0  0  0  0  0  0  0  0
   45.4420   58.7680   14.7100 C   0  0  0  0  0  0  0  0  0  0  0  0
   43.2830   45.0440   18.0220 N   0  0  0  0  0  0  0  0  0  0  0  0
   45.8460   56.8440   13.3720 C   0  0  0  0  0  0  0  0  0  0  0  0
   45.6090   59.1370   16.0280 N   0  0  0  0  0  0  0  0  0  0  0  0
   46.1240   58.0810   16.6760 C   0  0  0  0  0  0  0  0  0  0  0  0
   47.6150   48.7640   17.2250 C   0  0  1  0  0  0  0  0  0  0  0  0
   46.3530   57.0440   15.8770 N   0  0  0  0  0  0  0  0  0  0  0  0
   47.4230   49.9570   16.1820 C   0  0  0  0  0  0  0  0  0  0  0  0
   44.8320   59.4030   13.6470 C   0  0  0  0  0  0  0  0  0  0  0  0
   48.2570   50.0630   15.0200 O   0  0  0  0  0  0  0  0  0  0  0  0
   45.8410   57.4150   14.6230 C   0  0  0  0  0  0  0  0  0  0  0  0
   45.2580   57.5440   12.2560 C   0  0  0  0  0  0  0  0  0  0  0  0
   48.4620   49.3590   18.3480 C   0  0  0  0  0  0  0  0  0  0  0  0
   49.2680   50.6480   17.8900 C   0  0  0  0  0  0  0  0  0  0  0  0
   50.1100   51.2470   19.0650 N   0  0  0  0  0  0  0  0  0  0  0  0
   50.9000   50.5200   19.8910 C   0  0  0  0  0  0  0  0  0  0  0  0
   51.4090   51.3270   20.8070 C   0  0  0  0  0  0  0  0  0  0  0  0
   50.8430   52.6380   20.5160 C   0  0  0  0  0  0  0  0  0  0  0  0
   50.1060   52.5440   19.3550 C   0  0  0  0  0  0  0  0  0  0  0  0
   51.1290   53.8550   20.9910 C   0  0  0  0  0  0  0  0  0  0  0  0
   50.5740   54.9070   20.4410 C   0  0  0  0  0  0  0  0  0  0  0  0
   49.7900   54.7760   19.3360 C   0  0  0  0  0  0  0  0  0  0  0  0
   49.5130   53.5710   18.8230 C   0  0  0  0  0  0  0  0  0  0  0  0
   46.1260   46.4250   16.3710 H   0  0  0  0  0  0  0  0  0  0  0  0
   49.5790   56.0880   17.9510 H   0  0  0  0  0  0  0  0  0  0  0  0
   45.7840   49.2180   19.4300 H   0  0  0  0  0  0  0  0  0  0  0  0
   48.3050   57.6300   17.4770 H   0  0  0  0  0  0  0  0  0  0  0  0
   48.1910   58.3570   19.1250 H   0  0  0  0  0  0  0  0  0  0  0  0
   46.1440   58.9910   18.6270 H   0  0  0  0  0  0  0  0  0  0  0  0
   45.6780   57.3260   18.6530 H   0  0  0  0  0  0  0  0  0  0  0  0
   47.2420   55.7730   17.2490 H   0  0  0  0  0  0  0  0  0  0  0  0
   47.7970   55.5870   15.6020 H   0  0  0  0  0  0  0  0  0  0  0  0
   46.2230   54.9870   16.0670 H   0  0  0  0  0  0  0  0  0  0  0  0
   44.4490   59.3830   11.5390 H   0  0  0  0  0  0  0  0  0  0  0  0
   43.8720   44.9180   18.8010 H   0  0  0  0  0  0  0  0  0  0  0  0
   42.5430   44.4170   17.8580 H   0  0  0  0  0  0  0  0  0  0  0  0
   46.2700   55.9140   13.2320 H   0  0  0  0  0  0  0  0  0  0  0  0
   48.0880   47.9410   16.7320 H   0  0  0  0  0  0  0  0  0  0  0  0
   47.5510   50.8660   16.7310 H   0  0  0  0  0  0  0  0  0  0  0  0
   46.4600   49.7510   15.7630 H   0  0  0  0  0  0  0  0  0  0  0  0
   44.3860   60.3190   13.8080 H   0  0  0  0  0  0  0  0  0  0  0  0
   48.4900   50.9920   14.8730 H   0  0  0  0  0  0  0  0  0  0  0  0
   45.1780   57.0560   11.3510 H   0  0  0  0  0  0  0  0  0  0  0  0
   49.1600   48.6180   18.6790 H   0  0  0  0  0  0  0  0  0  0  0  0
   47.7980   49.6540   19.1330 H   0  0  0  0  0  0  0  0  0  0  0  0
   48.5750   51.3870   17.5470 H   0  0  0  0  0  0  0  0  0  0  0  0
   49.9400   50.3630   17.1070 H   0  0  0  0  0  0  0  0  0  0  0  0
   51.0750   49.5050   19.8180 H   0  0  0  0  0  0  0  0  0  0  0  0
   52.0650   51.0810   21.5650 H   0  0  0  0  0  0  0  0  0  0  0  0
   51.7810   53.9650   21.7840 H   0  0  0  0  0  0  0  0  0  0  0  0
   50.7320   55.8420   20.8490 H   0  0  0  0  0  0  0  0  0  0  0  0
  1  9  2  0  0  0  0
  1  5  1  0  0  0  0
  2  4  1  0  0  0  0
  2 36  1  0  0  0  0
  4  3  2  0  0  0  0
  5  6  1  0  0  0  0
  6  8  2  0  0  0  0
  6 40  1  0  0  0  0
  7  4  1  0  0  0  0
  7 42  1  0  0  0  0
  9  8  1  0  0  0  0
 10  7  1  0  0  0  0
 10 43  1  0  0  0  0
 10 44  1  0  0  0  0
 11 45  1  0  0  0  0
 12  9  1  0  0  0  0
 12 16  1  0  0  0  0
 13 23  1  0  0  0  0
 14 12  2  0  0  0  0
 15 18  1  0  0  0  0
 16 49  1  0  0  0  0
 17 25  2  0  0  0  0
 18 19  2  0  0  0  0
 19 10  1  0  0  0  0
 20 52  1  6  0  0  0
 20  5  1  0  0  0  0
 20 27  1  0  0  0  0
 21 11  1  0  0  0  0
 21 19  1  0  0  0  0
 22 53  1  0  0  0  0
 22 20  1  0  0  0  0
 23 55  1  0  0  0  0
 23 15  2  0  0  0  0
 24 22  1  0  0  0  0
 25 15  1  0  0  0  0
 25 21  1  0  0  0  0
 26 13  2  0  0  0  0
 26 17  1  0  0  0  0
 27 58  1  0  0  0  0
 27 59  1  0  0  0  0
 28 27  1  0  0  0  0
 28 29  1  0  0  0  0
 29 33  1  0  0  0  0
 29 30  1  0  0  0  0
 30 31  2  0  0  0  0
 31 63  1  0  0  0  0
 32 31  1  0  0  0  0
 32 34  1  0  0  0  0
 33 32  2  0  0  0  0
 34 64  1  0  0  0  0
 35 65  1  0  0  0  0
 35 34  2  0  0  0  0
 36 35  1  0  0  0  0
 37 36  2  0  0  0  0
 37 33  1  0  0  0  0
 38  1  1  0  0  0  0
 39  2  1  0  0  0  0
 41  7  1  0  0  0  0
 46 11  1  0  0  0  0
 47 11  1  0  0  0  0
 48 13  1  0  0  0  0
 50 16  1  0  0  0  0
 51 17  1  0  0  0  0
 54 22  1  0  0  0  0
 56 24  1  0  0  0  0
 57 26  1  0  0  0  0
 60 28  1  0  0  0  0
 61 28  1  0  0  0  0
 62 30  1  0  0  0  0
M  END
>  <minimizedAffinity>
-8.32

$$$$

 OpenBabel10302317323D

 65 69  0  0  1  0  0  0  0  0999 V2000
   52.0090   55.3940   20.0010 C   0  0  0  0  0  0  0  0  0  0  0  0
   48.3300   52.4510   16.5750 N   0  0  0  0  0  0  0  0  0  0  0  0
   46.1470   52.4910   16.4660 O   0  0  0  0  0  0  0  0  0  0  0  0
   47.2360   53.0210   16.3980 C   0  0  0  0  0  0  0  0  0  0  0  0
   51.3770   54.2510   20.4600 N   0  0  0  0  0  0  0  0  0  0  0  0
   50.9340   54.5510   21.7190 C   0  0  0  0  0  0  0  0  0  0  0  0
   47.3290   54.5380   16.1580 C   0  0  0  0  0  0  0  0  0  0  0  0
   51.3090   55.6950   22.1070 N   0  0  0  0  0  0  0  0  0  0  0  0
   52.0700   56.2110   21.0230 C   0  0  0  0  0  0  0  0  0  0  0  0
   47.8680   55.4050   17.3220 C   0  0  0  0  0  0  0  0  0  0  0  0
   46.5190   56.5280   14.8070 C   0  0  0  0  0  0  0  0  0  0  0  0
   52.7680   57.4950   21.0220 C   0  0  0  0  0  0  0  0  0  0  0  0
   45.0750   60.8090   17.7560 C   0  0  0  0  0  0  0  0  0  0  0  0
   53.4720   57.8850   20.0530 O   0  0  0  0  0  0  0  0  0  0  0  0
   46.3440   58.7210   17.7600 C   0  0  0  0  0  0  0  0  0  0  0  0
   52.6740   58.1470   22.1710 N   0  0  0  0  0  0  0  0  0  0  0  0
   45.2310   59.3440   15.7530 C   0  0  0  0  0  0  0  0  0  0  0  0
   47.1130   57.6660   18.2040 N   0  0  0  0  0  0  0  0  0  0  0  0
   47.2040   56.7860   17.1960 C   0  0  0  0  0  0  0  0  0  0  0  0
   51.3700   52.9340   19.7540 C   0  0  1  0  0  0  0  0  0  0  0  0
   46.5870   57.1950   16.0940 N   0  0  0  0  0  0  0  0  0  0  0  0
   52.4140   52.7560   18.5590 C   0  0  0  0  0  0  0  0  0  0  0  0
   45.8230   59.8190   18.4130 C   0  0  0  0  0  0  0  0  0  0  0  0
   51.9730   52.4080   17.2400 O   0  0  0  0  0  0  0  0  0  0  0  0
   45.9430   58.3930   16.4450 C   0  0  0  0  0  0  0  0  0  0  0  0
   44.7420   60.5180   16.4350 C   0  0  0  0  0  0  0  0  0  0  0  0
   51.6400   51.7570   20.6890 C   0  0  0  0  0  0  0  0  0  0  0  0
   50.3120   50.9930   21.1090 C   0  0  0  0  0  0  0  0  0  0  0  0
   49.9170   49.9070   20.0540 N   0  0  0  0  0  0  0  0  0  0  0  0
   50.0470   48.5720   20.2440 C   0  0  0  0  0  0  0  0  0  0  0  0
   49.6850   47.9510   19.1330 C   0  0  0  0  0  0  0  0  0  0  0  0
   49.3450   49.0140   18.1960 C   0  0  0  0  0  0  0  0  0  0  0  0
   49.4230   50.2190   18.8610 C   0  0  0  0  0  0  0  0  0  0  0  0
   48.7540   48.9860   16.9960 C   0  0  0  0  0  0  0  0  0  0  0  0
   48.4160   50.1130   16.4200 C   0  0  0  0  0  0  0  0  0  0  0  0
   48.5720   51.2970   17.0740 C   0  0  0  0  0  0  0  0  0  0  0  0
   49.1340   51.3490   18.2880 C   0  0  0  0  0  0  0  0  0  0  0  0
   52.3610   55.5680   19.0460 H   0  0  0  0  0  0  0  0  0  0  0  0
   49.1220   52.9610   16.2890 H   0  0  0  0  0  0  0  0  0  0  0  0
   50.3570   53.9140   22.2900 H   0  0  0  0  0  0  0  0  0  0  0  0
   46.3450   54.8870   15.9250 H   0  0  0  0  0  0  0  0  0  0  0  0
   48.0480   54.6500   15.3740 H   0  0  0  0  0  0  0  0  0  0  0  0
   48.9310   55.5000   17.2480 H   0  0  0  0  0  0  0  0  0  0  0  0
   47.6430   54.9580   18.2680 H   0  0  0  0  0  0  0  0  0  0  0  0
   47.1110   55.6370   14.8350 H   0  0  0  0  0  0  0  0  0  0  0  0
   46.8950   57.1810   14.0470 H   0  0  0  0  0  0  0  0  0  0  0  0
   45.5030   56.2750   14.5890 H   0  0  0  0  0  0  0  0  0  0  0  0
   44.7920   61.6870   18.2180 H   0  0  0  0  0  0  0  0  0  0  0  0
   52.1060   57.7920   22.8930 H   0  0  0  0  0  0  0  0  0  0  0  0
   53.1710   58.9860   22.3030 H   0  0  0  0  0  0  0  0  0  0  0  0
   45.0460   59.2180   14.7460 H   0  0  0  0  0  0  0  0  0  0  0  0
   50.3780   52.9350   19.3540 H   0  0  0  0  0  0  0  0  0  0  0  0
   53.0980   51.9920   18.8640 H   0  0  0  0  0  0  0  0  0  0  0  0
   52.7920   53.7490   18.4270 H   0  0  0  0  0  0  0  0  0  0  0  0
   45.9900   59.9170   19.4270 H   0  0  0  0  0  0  0  0  0  0  0  0
   52.6090   52.7430   16.5880 H   0  0  0  0  0  0  0  0  0  0  0  0
   44.1220   61.1660   15.9240 H   0  0  0  0  0  0  0  0  0  0  0  0
   52.1180   52.1250   21.5730 H   0  0  0  0  0  0  0  0  0  0  0  0
   52.2610   51.0620   20.1640 H   0  0  0  0  0  0  0  0  0  0  0  0
   49.5150   51.7020   21.1930 H   0  0  0  0  0  0  0  0  0  0  0  0
   50.4880   50.5050   22.0440 H   0  0  0  0  0  0  0  0  0  0  0  0
   50.3740   48.1150   21.1100 H   0  0  0  0  0  0  0  0  0  0  0  0
   49.6510   46.9330   18.9660 H   0  0  0  0  0  0  0  0  0  0  0  0
   48.5670   48.0850   16.5290 H   0  0  0  0  0  0  0  0  0  0  0  0
   48.0280   50.1040   15.4640 H   0  0  0  0  0  0  0  0  0  0  0  0
  1  5  1  0  0  0  0
  1  9  2  0  0  0  0
  2 36  1  0  0  0  0
  4  3  2  0  0  0  0
  4  2  1  0  0  0  0
  5  6  1  0  0  0  0
  6  8  2  0  0  0  0
  6 40  1  0  0  0  0
  7  4  1  0  0  0  0
  7 10  1  0  0  0  0
  9  8  1  0  0  0  0
 10 44  1  0  0  0  0
 11 45  1  0  0  0  0
 11 21  1  0  0  0  0
 12  9  1  0  0  0  0
 12 16  1  0  0  0  0
 13 48  1  0  0  0  0
 13 23  1  0  0  0  0
 14 12  2  0  0  0  0
 15 18  1  0  0  0  0
 15 23  2  0  0  0  0
 16 50  1  0  0  0  0
 16 49  1  0  0  0  0
 17 26  1  0  0  0  0
 17 25  2  0  0  0  0
 19 10  1  0  0  0  0
 19 18  2  0  0  0  0
 20 52  1  6  0  0  0
 20  5  1  0  0  0  0
 20 27  1  0  0  0  0
 21 25  1  0  0  0  0
 21 19  1  0  0  0  0
 22 53  1  0  0  0  0
 22 20  1  0  0  0  0
 23 55  1  0  0  0  0
 24 22  1  0  0  0  0
 25 15  1  0  0  0  0
 26 13  2  0  0  0  0
 27 28  1  0  0  0  0
 27 58  1  0  0  0  0
 28 60  1  0  0  0  0
 28 61  1  0  0  0  0
 29 30  1  0  0  0  0
 29 28  1  0  0  0  0
 30 62  1  0  0  0  0
 31 30  2  0  0  0  0
 32 33  1  0  0  0  0
 32 31  1  0  0  0  0
 33 29  1  0  0  0  0
 34 32  2  0  0  0  0
 35 34  1  0  0  0  0
 35 36  2  0  0  0  0
 36 37  1  0  0  0  0
 37 33  2  0  0  0  0
 38  1  1  0  0  0  0
 39  2  1  0  0  0  0
 41  7  1  0  0  0  0
 42  7  1  0  0  0  0
 43 10  1  0  0  0  0
 46 11  1  0  0  0  0
 47 11  1  0  0  0  0
 51 17  1  0  0  0  0
 54 22  1  0  0  0  0
 56 24  1  0  0  0  0
 57 26  1  0  0  0  0
 59 27  1  0  0  0  0
 63 31  1  0  0  0  0
 64 34  1  0  0  0  0
 65 35  1  0  0  0  0
M  END
>  <minimizedAffinity>
-8.30

$$$$

 OpenBabel10302317323D

 65 69  0  0  1  0  0  0  0  0999 V2000
   51.3180   53.3060   20.7050 C   0  0  0  0  0  0  0  0  0  0  0  0
   47.9800   52.9180   16.3050 N   0  0  0  0  0  0  0  0  0  0  0  0
   45.8850   53.4530   15.9890 O   0  0  0  0  0  0  0  0  0  0  0  0
   47.0470   53.7360   16.1920 C   0  0  0  0  0  0  0  0  0  0  0  0
   51.2290   51.9580   21.0120 N   0  0  0  0  0  0  0  0  0  0  0  0
   50.4870   51.8870   22.1590 C   0  0  0  0  0  0  0  0  0  0  0  0
   47.4410   55.2050   16.4180 C   0  0  0  0  0  0  0  0  0  0  0  0
   50.2080   53.0280   22.6290 N   0  0  0  0  0  0  0  0  0  0  0  0
   50.8110   53.9460   21.7280 C   0  0  0  0  0  0  0  0  0  0  0  0
   47.0950   56.2110   15.2930 C   0  0  0  0  0  0  0  0  0  0  0  0
   44.8850   58.1340   14.3870 C   0  0  0  0  0  0  0  0  0  0  0  0
   50.8120   55.4000   21.8840 C   0  0  0  0  0  0  0  0  0  0  0  0
   45.9220   61.0610   18.7990 C   0  0  0  0  0  0  0  0  0  0  0  0
   50.2450   56.1720   21.0650 O   0  0  0  0  0  0  0  0  0  0  0  0
   46.6230   59.1290   17.4760 C   0  0  0  0  0  0  0  0  0  0  0  0
   51.5500   55.8200   22.9000 N   0  0  0  0  0  0  0  0  0  0  0  0
   44.7790   60.4080   16.6890 C   0  0  0  0  0  0  0  0  0  0  0  0
   47.3090   57.9970   17.0880 N   0  0  0  0  0  0  0  0  0  0  0  0
   46.7180   57.5350   15.9760 C   0  0  0  0  0  0  0  0  0  0  0  0
   51.9640   50.8680   20.3030 C   0  0  1  0  0  0  0  0  0  0  0  0
   45.7120   58.3000   15.5670 N   0  0  0  0  0  0  0  0  0  0  0  0
   53.3530   50.4070   20.9410 C   0  0  0  0  0  0  0  0  0  0  0  0
   46.7100   59.9150   18.6080 C   0  0  0  0  0  0  0  0  0  0  0  0
   53.9810   49.1850   20.5350 O   0  0  0  0  0  0  0  0  0  0  0  0
   45.5600   59.2840   16.5580 C   0  0  0  0  0  0  0  0  0  0  0  0
   44.9210   61.2540   17.8490 C   0  0  0  0  0  0  0  0  0  0  0  0
   51.1450   49.5850   20.1760 C   0  0  0  0  0  0  0  0  0  0  0  0
   49.5820   49.8590   20.1370 C   0  0  0  0  0  0  0  0  0  0  0  0
   48.9190   49.2250   18.8690 N   0  0  0  0  0  0  0  0  0  0  0  0
   48.7140   47.8970   18.6940 C   0  0  0  0  0  0  0  0  0  0  0  0
   48.1990   47.7050   17.4900 C   0  0  0  0  0  0  0  0  0  0  0  0
   48.1250   49.0320   16.8920 C   0  0  0  0  0  0  0  0  0  0  0  0
   48.5060   49.9570   17.8400 C   0  0  0  0  0  0  0  0  0  0  0  0
   47.5340   49.4720   15.7750 C   0  0  0  0  0  0  0  0  0  0  0  0
   47.4810   50.7600   15.5410 C   0  0  0  0  0  0  0  0  0  0  0  0
   47.9330   51.6500   16.4660 C   0  0  0  0  0  0  0  0  0  0  0  0
   48.5010   51.2350   17.6050 C   0  0  0  0  0  0  0  0  0  0  0  0
   51.7050   53.7210   19.8430 H   0  0  0  0  0  0  0  0  0  0  0  0
   48.8850   53.3040   16.2650 H   0  0  0  0  0  0  0  0  0  0  0  0
   50.1890   51.0000   22.5940 H   0  0  0  0  0  0  0  0  0  0  0  0
   48.5010   55.2350   16.5620 H   0  0  0  0  0  0  0  0  0  0  0  0
   46.8610   55.5210   17.2600 H   0  0  0  0  0  0  0  0  0  0  0  0
   46.2710   55.8480   14.7160 H   0  0  0  0  0  0  0  0  0  0  0  0
   47.9250   56.3450   14.6320 H   0  0  0  0  0  0  0  0  0  0  0  0
   45.2390   57.3000   13.8170 H   0  0  0  0  0  0  0  0  0  0  0  0
   44.9340   59.0200   13.7890 H   0  0  0  0  0  0  0  0  0  0  0  0
   43.8720   57.9580   14.6830 H   0  0  0  0  0  0  0  0  0  0  0  0
   46.0740   61.7130   19.5840 H   0  0  0  0  0  0  0  0  0  0  0  0
   51.9690   55.1680   23.5080 H   0  0  0  0  0  0  0  0  0  0  0  0
   51.6810   56.7850   23.0480 H   0  0  0  0  0  0  0  0  0  0  0  0
   44.0910   60.6460   15.9580 H   0  0  0  0  0  0  0  0  0  0  0  0
   52.1510   51.3420   19.3620 H   0  0  0  0  0  0  0  0  0  0  0  0
   53.1920   50.3320   21.9960 H   0  0  0  0  0  0  0  0  0  0  0  0
   54.0340   51.1520   20.5860 H   0  0  0  0  0  0  0  0  0  0  0  0
   47.3810   59.6480   19.3450 H   0  0  0  0  0  0  0  0  0  0  0  0
   54.7770   49.0370   21.0700 H   0  0  0  0  0  0  0  0  0  0  0  0
   44.2550   62.0310   17.9800 H   0  0  0  0  0  0  0  0  0  0  0  0
   51.3630   48.9560   21.0140 H   0  0  0  0  0  0  0  0  0  0  0  0
   51.4160   49.1190   19.2520 H   0  0  0  0  0  0  0  0  0  0  0  0
   49.4140   50.9150   20.1260 H   0  0  0  0  0  0  0  0  0  0  0  0
   49.1420   49.4120   21.0050 H   0  0  0  0  0  0  0  0  0  0  0  0
   48.9260   47.1590   19.3830 H   0  0  0  0  0  0  0  0  0  0  0  0
   47.9120   46.8090   17.0670 H   0  0  0  0  0  0  0  0  0  0  0  0
   47.1240   48.8030   15.1050 H   0  0  0  0  0  0  0  0  0  0  0  0
   47.0940   51.1020   14.6470 H   0  0  0  0  0  0  0  0  0  0  0  0
  1  5  1  0  0  0  0
  1  9  2  0  0  0  0
  2 36  1  0  0  0  0
  3  4  2  0  0  0  0
  4  2  1  0  0  0  0
  4  7  1  0  0  0  0
  5  6  1  0  0  0  0
  6 40  1  0  0  0  0
  6  8  2  0  0  0  0
  7 41  1  0  0  0  0
  7 42  1  0  0  0  0
  9 12  1  0  0  0  0
  9  8  1  0  0  0  0
 10 19  1  0  0  0  0
 10  7  1  0  0  0  0
 11 47  1  0  0  0  0
 11 21  1  0  0  0  0
 12 16  1  0  0  0  0
 13 48  1  0  0  0  0
 14 12  2  0  0  0  0
 15 23  2  0  0  0  0
 16 50  1  0  0  0  0
 16 49  1  0  0  0  0
 17 26  1  0  0  0  0
 18 15  1  0  0  0  0
 19 18  2  0  0  0  0
 20 52  1  6  0  0  0
 20 22  1  0  0  0  0
 20  5  1  0  0  0  0
 21 19  1  0  0  0  0
 21 25  1  0  0  0  0
 22 53  1  0  0  0  0
 23 13  1  0  0  0  0
 23 55  1  0  0  0  0
 24 22  1  0  0  0  0
 24 56  1  0  0  0  0
 25 17  2  0  0  0  0
 25 15  1  0  0  0  0
 26 57  1  0  0  0  0
 26 13  2  0  0  0  0
 27 20  1  0  0  0  0
 27 58  1  0  0  0  0
 28 27  1  0  0  0  0
 28 61  1  0  0  0  0
 29 28  1  0  0  0  0
 30 29  1  0  0  0  0
 30 62  1  0  0  0  0
 31 30  2  0  0  0  0
 32 31  1  0  0  0  0
 32 33  1  0  0  0  0
 33 29  1  0  0  0  0
 34 32  2  0  0  0  0
 35 34  1  0  0  0  0
 35 36  2  0  0  0  0
 36 37  1  0  0  0  0
 37 33  2  0  0  0  0
 38  1  1  0  0  0  0
 39  2  1  0  0  0  0
 43 10  1  0  0  0  0
 44 10  1  0  0  0  0
 45 11  1  0  0  0  0
 46 11  1  0  0  0  0
 51 17  1  0  0  0  0
 54 22  1  0  0  0  0
 59 27  1  0  0  0  0
 60 28  1  0  0  0  0
 63 31  1  0  0  0  0
 64 34  1  0  0  0  0
 65 35  1  0  0  0  0
M  END
>  <minimizedAffinity>
-8.27

$$$$
