1NDZ


 41 45  0  0  0  0  0  0  0  0999 V2000
   48.1418   56.7101   19.2565 N   0  0  0  0  0  0  0  0  0  0  0  0
   47.7863   57.8286   18.5802 C   0  0  0  0  0  0  0  0  0  0  0  0
   47.3287   57.4749   17.3906 C   0  0  0  0  0  0  0  0  0  0  0  0
   47.3879   56.0186   17.3780 C   0  0  0  0  0  0  0  0  0  0  0  0
   47.9926   55.5990   18.5434 C   0  0  0  0  0  0  0  0  0  0  0  0
   47.2236   55.1310   16.3902 C   0  0  0  0  0  0  0  0  0  0  0  0
   47.4888   53.8671   16.6117 C   0  0  0  0  0  0  0  0  0  0  0  0
   48.0188   53.4707   17.8010 C   0  0  0  0  0  0  0  0  0  0  0  0
   48.2201   54.3447   18.7948 C   0  0  0  0  0  0  0  0  0  0  0  0
   48.2535   52.2575   18.1341 N   0  0  0  0  0  0  0  0  0  0  0  0
   50.2844   51.9294   17.3963 O   0  0  0  0  0  0  0  0  0  0  0  0
   49.3095   51.6022   18.0396 C   0  0  0  0  0  0  0  0  0  0  0  0
   47.4896   51.7716   18.5208 H   0  0  0  0  0  0  0  0  0  0  0  0
   49.3571   50.3242   18.8935 C   0  0  0  0  0  0  0  0  0  0  0  0
   49.0605   48.9841   18.1770 C   0  0  0  0  0  0  0  0  0  0  0  0
   46.7244   48.4495   16.2635 C   0  0  0  0  0  0  0  0  0  0  0  0
   43.8420   46.9154   20.5591 C   0  0  0  0  0  0  0  0  0  0  0  0
   45.9728   47.8563   19.8191 C   0  0  0  0  0  0  0  0  0  0  0  0
   44.3407   47.3571   18.1633 C   0  0  0  0  0  0  0  0  0  0  0  0
   47.2612   48.3463   19.8543 N   0  0  0  0  0  0  0  0  0  0  0  0
   47.6409   48.5613   18.5860 C   0  0  0  0  0  0  0  0  0  0  0  0
   46.6841   48.2901   17.7051 N   0  0  0  0  0  0  0  0  0  0  0  0
   45.1561   47.3430   20.8067 C   0  0  0  0  0  0  0  0  0  0  0  0
   45.6268   47.7464   18.4533 C   0  0  0  0  0  0  0  0  0  0  0  0
   43.4769   46.8780   19.2145 C   0  0  0  0  0  0  0  0  0  0  0  0
   48.6652   56.6954   20.7315 C   0  0  0  0  0  0  0  0  0  0  0  0
   50.0060   57.5329   20.8825 C   0  0  0  0  0  0  0  0  0  0  0  0
   51.1565   56.7037   21.4485 C   0  0  0  0  0  0  0  0  0  0  0  0
   50.8324   54.1800   21.6679 C   0  0  0  0  0  0  0  0  0  0  0  0
   51.1724   55.3025   20.9312 N   0  0  0  0  0  0  0  0  0  0  0  0
   51.6617   54.8324   19.7432 C   0  0  0  0  0  0  0  0  0  0  0  0
   51.7491   53.5709   19.7178 N   0  0  0  0  0  0  0  0  0  0  0  0
   51.2829   53.1522   20.9936 C   0  0  0  0  0  0  0  0  0  0  0  0
   51.2507   51.7687   21.4641 C   0  0  0  0  0  0  0  0  0  0  0  0
   52.0823   50.9017   21.0830 O   0  0  0  0  0  0  0  0  0  0  0  0
   50.2085   51.4981   22.2354 N   0  0  0  0  0  0  0  0  0  0  0  0
   49.5923   52.2186   22.5008 H   0  0  0  0  0  0  0  0  0  0  0  0
   50.0500   50.5766   22.5432 H   0  0  0  0  0  0  0  0  0  0  0  0
   52.4637   57.5805   21.1824 C   0  0  0  0  0  0  0  0  0  0  0  0
   53.2975   58.0098   22.2668 O   0  0  0  0  0  0  0  0  0  0  0  0
   52.8094   58.6391   22.8204 H   0  0  0  0  0  0  0  0  0  0  0  0
 29 30  1  0  0  0
 29 33  2  0  0  0
 10 12  1  0  0  0
 11 12  2  0  0  0
 12 14  1  0  0  0
 30 31  1  0  0  0
 30 28  1  0  0  0
 31 32  2  0  0  0
 14 15  1  0  0  0
 32 33  1  0  0  0
 33 34  1  0  0  0
 15 21  1  0  0  0
 34 35  2  0  0  0
 34 36  1  0  0  0
 17 23  2  0  0  0
 17 25  1  0  0  0
 18 20  1  0  0  0
 18 24  2  0  0  0
 19 25  2  0  0  0
 20 21  2  0  0  0
 21 22  1  0  0  0
 28 39  1  0  0  0
 28 27  1  0  0  0
 16 22  1  0  0  0
 39 40  1  0  0  0
 18 23  1  0  0  0
 19 24  1  0  0  0
 22 24  1  0  0  0
 27 26  1  0  0  0
 26  1  1  0  0  0
  1  2  1  0  0  0
  1  5  1  0  0  0
  2  3  2  0  0  0
  3  4  1  0  0  0
  4  5  2  0  0  0
  4  6  1  0  0  0
  5  9  1  0  0  0
  6  7  2  0  0  0
  7  8  1  0  0  0
 10  8  1  0  0  0
  8  9  2  0  0  0
 10 13  1  0  0  0
 36 37  1  0  0  0
 36 38  1  0  0  0
 40 41  1  0  0  0
M  END
> <minimizedAffinity>
-10.17248

$$$$
1NDZ


 41 45  0  0  0  0  0  0  0  0999 V2000
   49.7358   54.4944   20.4466 N   0  0  0  0  0  0  0  0  0  0  0  0
   50.7623   54.4525   21.3294 C   0  0  0  0  0  0  0  0  0  0  0  0
   50.7586   55.5717   22.0344 C   0  0  0  0  0  0  0  0  0  0  0  0
   49.6089   56.3239   21.5476 C   0  0  0  0  0  0  0  0  0  0  0  0
   49.0585   55.6368   20.4872 C   0  0  0  0  0  0  0  0  0  0  0  0
   49.2166   57.5851   21.7621 C   0  0  0  0  0  0  0  0  0  0  0  0
   48.2166   58.0731   21.0703 C   0  0  0  0  0  0  0  0  0  0  0  0
   47.6434   57.3425   20.0752 C   0  0  0  0  0  0  0  0  0  0  0  0
   48.0381   56.0888   19.8216 C   0  0  0  0  0  0  0  0  0  0  0  0
   46.6266   57.7054   19.3879 N   0  0  0  0  0  0  0  0  0  0  0  0
   44.9559   57.3296   20.7457 O   0  0  0  0  0  0  0  0  0  0  0  0
   45.4315   57.7924   19.7304 C   0  0  0  0  0  0  0  0  0  0  0  0
   46.8160   57.9515   18.4536 H   0  0  0  0  0  0  0  0  0  0  0  0
   44.5495   58.6355   18.7944 C   0  0  0  0  0  0  0  0  0  0  0  0
   45.2693   59.6295   17.8504 C   0  0  0  0  0  0  0  0  0  0  0  0
   43.8025   60.9559   15.5065 C   0  0  0  0  0  0  0  0  0  0  0  0
   45.6202   56.9477   12.3849 C   0  0  0  0  0  0  0  0  0  0  0  0
   45.5049   57.7990   14.6730 C   0  0  0  0  0  0  0  0  0  0  0  0
   44.4369   59.0576   12.9612 C   0  0  0  0  0  0  0  0  0  0  0  0
   45.7103   57.9101   16.0319 N   0  0  0  0  0  0  0  0  0  0  0  0
   45.1499   59.0628   16.4270 C   0  0  0  0  0  0  0  0  0  0  0  0
   44.5468   59.7123   15.4374 N   0  0  0  0  0  0  0  0  0  0  0  0
   45.9796   56.8978   13.7411 C   0  0  0  0  0  0  0  0  0  0  0  0
   44.8325   58.9767   14.2753 C   0  0  0  0  0  0  0  0  0  0  0  0
   44.8922   58.0750   12.0083 C   0  0  0  0  0  0  0  0  0  0  0  0
   49.3544   53.3279   19.4753 C   0  0  0  0  0  0  0  0  0  0  0  0
   50.5542   52.3033   19.2954 C   0  0  0  0  0  0  0  0  0  0  0  0
   50.1682   50.8743   19.6702 C   0  0  0  0  0  0  0  0  0  0  0  0
   48.7643   48.9862   18.6769 C   0  0  0  0  0  0  0  0  0  0  0  0
   49.5373   50.1275   18.5409 N   0  0  0  0  0  0  0  0  0  0  0  0
   49.7161   50.2962   17.1951 C   0  0  0  0  0  0  0  0  0  0  0  0
   49.2319   49.3450   16.5166 N   0  0  0  0  0  0  0  0  0  0  0  0
   48.6818   48.4584   17.4817 C   0  0  0  0  0  0  0  0  0  0  0  0
   48.0570   47.1716   17.1810 C   0  0  0  0  0  0  0  0  0  0  0  0
   48.6246   46.0701   17.4109 O   0  0  0  0  0  0  0  0  0  0  0  0
   46.8968   47.2830   16.5518 N   0  0  0  0  0  0  0  0  0  0  0  0
   46.5019   48.1722   16.4010 H   0  0  0  0  0  0  0  0  0  0  0  0
   46.4293   46.4768   16.2348 H   0  0  0  0  0  0  0  0  0  0  0  0
   51.4939   50.2419   20.2954 C   0  0  0  0  0  0  0  0  0  0  0  0
   51.9017   50.5569   21.6333 O   0  0  0  0  0  0  0  0  0  0  0  0
   52.1484   51.4935   21.6840 H   0  0  0  0  0  0  0  0  0  0  0  0
 29 30  1  0  0  0
 29 33  2  0  0  0
 10 12  1  0  0  0
 11 12  2  0  0  0
 12 14  1  0  0  0
 30 31  1  0  0  0
 30 28  1  0  0  0
 31 32  2  0  0  0
 14 15  1  0  0  0
 32 33  1  0  0  0
 33 34  1  0  0  0
 15 21  1  0  0  0
 34 35  2  0  0  0
 34 36  1  0  0  0
 17 23  2  0  0  0
 17 25  1  0  0  0
 18 20  1  0  0  0
 18 24  2  0  0  0
 19 25  2  0  0  0
 20 21  2  0  0  0
 21 22  1  0  0  0
 28 39  1  0  0  0
 28 27  1  0  0  0
 16 22  1  0  0  0
 39 40  1  0  0  0
 18 23  1  0  0  0
 19 24  1  0  0  0
 22 24  1  0  0  0
 27 26  1  0  0  0
 26  1  1  0  0  0
  1  2  1  0  0  0
  1  5  1  0  0  0
  2  3  2  0  0  0
  3  4  1  0  0  0
  4  5  2  0  0  0
  4  6  1  0  0  0
  5  9  1  0  0  0
  6  7  2  0  0  0
  7  8  1  0  0  0
 10  8  1  0  0  0
  8  9  2  0  0  0
 10 13  1  0  0  0
 36 37  1  0  0  0
 36 38  1  0  0  0
 40 41  1  0  0  0
M  END
> <minimizedAffinity>
-9.32982

$$$$
1NDZ


 41 45  0  0  0  0  0  0  0  0999 V2000
   50.1789   50.9886   18.9035 N   0  0  0  0  0  0  0  0  0  0  0  0
   50.8401   49.9356   19.4406 C   0  0  0  0  0  0  0  0  0  0  0  0
   51.1415   50.2224   20.6963 C   0  0  0  0  0  0  0  0  0  0  0  0
   50.5785   51.5466   20.9294 C   0  0  0  0  0  0  0  0  0  0  0  0
   50.0650   52.0152   19.7393 C   0  0  0  0  0  0  0  0  0  0  0  0
   50.7213   52.4067   21.9444 C   0  0  0  0  0  0  0  0  0  0  0  0
   50.2263   53.6151   21.8367 C   0  0  0  0  0  0  0  0  0  0  0  0
   49.6585   54.0275   20.6704 C   0  0  0  0  0  0  0  0  0  0  0  0
   49.5306   53.1946   19.6304 C   0  0  0  0  0  0  0  0  0  0  0  0
   49.0947   55.1618   20.4873 N   0  0  0  0  0  0  0  0  0  0  0  0
   50.0409   56.4302   21.9946 O   0  0  0  0  0  0  0  0  0  0  0  0
   49.3425   56.2622   21.0172 C   0  0  0  0  0  0  0  0  0  0  0  0
   48.3588   55.1654   19.8333 H   0  0  0  0  0  0  0  0  0  0  0  0
   48.7574   57.4805   20.2835 C   0  0  0  0  0  0  0  0  0  0  0  0
   47.2147   57.5810   20.1996 C   0  0  0  0  0  0  0  0  0  0  0  0
   44.8218   58.9149   18.8214 C   0  0  0  0  0  0  0  0  0  0  0  0
   46.6376   56.8683   14.1708 C   0  0  0  0  0  0  0  0  0  0  0  0
   46.9808   56.9358   16.5896 C   0  0  0  0  0  0  0  0  0  0  0  0
   45.1586   58.1696   15.6884 C   0  0  0  0  0  0  0  0  0  0  0  0
   47.5412   56.7204   17.8310 N   0  0  0  0  0  0  0  0  0  0  0  0
   46.8359   57.4388   18.7171 C   0  0  0  0  0  0  0  0  0  0  0  0
   45.8165   58.0874   18.1648 N   0  0  0  0  0  0  0  0  0  0  0  0
   47.3816   56.5644   15.3219 C   0  0  0  0  0  0  0  0  0  0  0  0
   45.9316   57.8627   16.7830 C   0  0  0  0  0  0  0  0  0  0  0  0
   45.5572   57.7247   14.3754 C   0  0  0  0  0  0  0  0  0  0  0  0
   49.5868   51.0176   17.4550 C   0  0  0  0  0  0  0  0  0  0  0  0
   48.1128   50.4280   17.4159 C   0  0  0  0  0  0  0  0  0  0  0  0
   48.0263   49.0217   18.0045 C   0  0  0  0  0  0  0  0  0  0  0  0
   46.4342   48.1128   19.7825 C   0  0  0  0  0  0  0  0  0  0  0  0
   46.6739   48.7034   18.5528 N   0  0  0  0  0  0  0  0  0  0  0  0
   45.4589   48.7628   17.9267 C   0  0  0  0  0  0  0  0  0  0  0  0
   44.5429   48.1922   18.5863 N   0  0  0  0  0  0  0  0  0  0  0  0
   45.1907   47.7046   19.7538 C   0  0  0  0  0  0  0  0  0  0  0  0
   44.5489   46.9150   20.8032 C   0  0  0  0  0  0  0  0  0  0  0  0
   44.9737   46.8880   21.9894 O   0  0  0  0  0  0  0  0  0  0  0  0
   43.5561   46.1580   20.3609 N   0  0  0  0  0  0  0  0  0  0  0  0
   43.2678   46.2235   19.4218 H   0  0  0  0  0  0  0  0  0  0  0  0
   43.1065   45.5298   20.9711 H   0  0  0  0  0  0  0  0  0  0  0  0
   48.5775   48.0612   16.8547 C   0  0  0  0  0  0  0  0  0  0  0  0
   48.6435   46.6421   17.0476 O   0  0  0  0  0  0  0  0  0  0  0  0
   49.2980   46.4391   17.7340 H   0  0  0  0  0  0  0  0  0  0  0  0
 29 30  1  0  0  0
 29 33  2  0  0  0
 10 12  1  0  0  0
 11 12  2  0  0  0
 12 14  1  0  0  0
 30 31  1  0  0  0
 30 28  1  0  0  0
 31 32  2  0  0  0
 14 15  1  0  0  0
 32 33  1  0  0  0
 33 34  1  0  0  0
 15 21  1  0  0  0
 34 35  2  0  0  0
 34 36  1  0  0  0
 17 23  2  0  0  0
 17 25  1  0  0  0
 18 20  1  0  0  0
 18 24  2  0  0  0
 19 25  2  0  0  0
 20 21  2  0  0  0
 21 22  1  0  0  0
 28 39  1  0  0  0
 28 27  1  0  0  0
 16 22  1  0  0  0
 39 40  1  0  0  0
 18 23  1  0  0  0
 19 24  1  0  0  0
 22 24  1  0  0  0
 27 26  1  0  0  0
 26  1  1  0  0  0
  1  2  1  0  0  0
  1  5  1  0  0  0
  2  3  2  0  0  0
  3  4  1  0  0  0
  4  5  2  0  0  0
  4  6  1  0  0  0
  5  9  1  0  0  0
  6  7  2  0  0  0
  7  8  1  0  0  0
 10  8  1  0  0  0
  8  9  2  0  0  0
 10 13  1  0  0  0
 36 37  1  0  0  0
 36 38  1  0  0  0
 40 41  1  0  0  0
M  END
> <minimizedAffinity>
-9.32169

$$$$
1NDZ


 41 45  0  0  0  0  0  0  0  0999 V2000
   48.4221   56.6103   19.6729 N   0  0  0  0  0  0  0  0  0  0  0  0
   48.0279   57.6751   20.4114 C   0  0  0  0  0  0  0  0  0  0  0  0
   48.7253   57.6907   21.5353 C   0  0  0  0  0  0  0  0  0  0  0  0
   49.6337   56.5552   21.4348 C   0  0  0  0  0  0  0  0  0  0  0  0
   49.3338   55.8605   20.2828 C   0  0  0  0  0  0  0  0  0  0  0  0
   50.4391   55.9791   22.3348 C   0  0  0  0  0  0  0  0  0  0  0  0
   51.0431   54.8569   22.0308 C   0  0  0  0  0  0  0  0  0  0  0  0
   50.7816   54.2290   20.8518 C   0  0  0  0  0  0  0  0  0  0  0  0
   49.9567   54.7706   19.9473 C   0  0  0  0  0  0  0  0  0  0  0  0
   51.3638   53.1667   20.4389 N   0  0  0  0  0  0  0  0  0  0  0  0
   50.5090   51.6107   21.7135 O   0  0  0  0  0  0  0  0  0  0  0  0
   51.1632   51.9796   20.7609 C   0  0  0  0  0  0  0  0  0  0  0  0
   52.0725   53.3077   19.7702 H   0  0  0  0  0  0  0  0  0  0  0  0
   51.7462   50.9382   19.7911 C   0  0  0  0  0  0  0  0  0  0  0  0
   51.2149   50.9515   18.3369 C   0  0  0  0  0  0  0  0  0  0  0  0
   48.6610   52.4222   17.4888 C   0  0  0  0  0  0  0  0  0  0  0  0
   45.9802   47.8236   18.3722 C   0  0  0  0  0  0  0  0  0  0  0  0
   48.1533   48.9295   18.5388 C   0  0  0  0  0  0  0  0  0  0  0  0
   46.3210   50.1944   17.7036 C   0  0  0  0  0  0  0  0  0  0  0  0
   49.4990   49.1268   18.7656 N   0  0  0  0  0  0  0  0  0  0  0  0
   49.7905   50.3762   18.3745 C   0  0  0  0  0  0  0  0  0  0  0  0
   48.7277   51.0450   17.9407 N   0  0  0  0  0  0  0  0  0  0  0  0
   47.3610   47.8023   18.6250 C   0  0  0  0  0  0  0  0  0  0  0  0
   47.6723   50.1181   17.9445 C   0  0  0  0  0  0  0  0  0  0  0  0
   45.4933   49.0228   17.8549 C   0  0  0  0  0  0  0  0  0  0  0  0
   47.8865   56.2787   18.2401 C   0  0  0  0  0  0  0  0  0  0  0  0
   47.5067   57.5970   17.4403 C   0  0  0  0  0  0  0  0  0  0  0  0
   46.0311   57.6435   17.0502 C   0  0  0  0  0  0  0  0  0  0  0  0
   44.1164   58.7136   18.3583 C   0  0  0  0  0  0  0  0  0  0  0  0
   45.3063   58.8012   17.6548 N   0  0  0  0  0  0  0  0  0  0  0  0
   45.5526   60.1388   17.5074 C   0  0  0  0  0  0  0  0  0  0  0  0
   44.6099   60.8586   17.9466 N   0  0  0  0  0  0  0  0  0  0  0  0
   43.6453   59.9330   18.4292 C   0  0  0  0  0  0  0  0  0  0  0  0
   42.3409   60.2908   18.9834 C   0  0  0  0  0  0  0  0  0  0  0  0
   42.0954   61.4304   19.4624 O   0  0  0  0  0  0  0  0  0  0  0  0
   41.4908   59.2761   19.0285 N   0  0  0  0  0  0  0  0  0  0  0  0
   41.7394   58.4079   18.6364 H   0  0  0  0  0  0  0  0  0  0  0  0
   40.6105   59.3899   19.4542 H   0  0  0  0  0  0  0  0  0  0  0  0
   46.0248   57.5473   15.4568 C   0  0  0  0  0  0  0  0  0  0  0  0
   47.1355   56.9828   14.7474 O   0  0  0  0  0  0  0  0  0  0  0  0
   47.9124   57.5532   14.8565 H   0  0  0  0  0  0  0  0  0  0  0  0
 29 30  1  0  0  0
 29 33  2  0  0  0
 10 12  1  0  0  0
 11 12  2  0  0  0
 12 14  1  0  0  0
 30 31  1  0  0  0
 30 28  1  0  0  0
 31 32  2  0  0  0
 14 15  1  0  0  0
 32 33  1  0  0  0
 33 34  1  0  0  0
 15 21  1  0  0  0
 34 35  2  0  0  0
 34 36  1  0  0  0
 17 23  2  0  0  0
 17 25  1  0  0  0
 18 20  1  0  0  0
 18 24  2  0  0  0
 19 25  2  0  0  0
 20 21  2  0  0  0
 21 22  1  0  0  0
 28 39  1  0  0  0
 28 27  1  0  0  0
 16 22  1  0  0  0
 39 40  1  0  0  0
 18 23  1  0  0  0
 19 24  1  0  0  0
 22 24  1  0  0  0
 27 26  1  0  0  0
 26  1  1  0  0  0
  1  2  1  0  0  0
  1  5  1  0  0  0
  2  3  2  0  0  0
  3  4  1  0  0  0
  4  5  2  0  0  0
  4  6  1  0  0  0
  5  9  1  0  0  0
  6  7  2  0  0  0
  7  8  1  0  0  0
 10  8  1  0  0  0
  8  9  2  0  0  0
 10 13  1  0  0  0
 36 37  1  0  0  0
 36 38  1  0  0  0
 40 41  1  0  0  0
M  END
> <minimizedAffinity>
-9.31021

$$$$
1NDZ


 41 45  0  0  0  0  0  0  0  0999 V2000
   46.1397   47.7688   17.1286 N   0  0  0  0  0  0  0  0  0  0  0  0
   44.9366   47.1584   17.0080 C   0  0  0  0  0  0  0  0  0  0  0  0
   44.4349   46.9714   18.2176 C   0  0  0  0  0  0  0  0  0  0  0  0
   45.4126   47.5533   19.1287 C   0  0  0  0  0  0  0  0  0  0  0  0
   46.5051   47.9576   18.3921 C   0  0  0  0  0  0  0  0  0  0  0  0
   45.5259   47.5027   20.4610 C   0  0  0  0  0  0  0  0  0  0  0  0
   46.6010   47.9862   21.0330 C   0  0  0  0  0  0  0  0  0  0  0  0
   47.6367   48.4467   20.2794 C   0  0  0  0  0  0  0  0  0  0  0  0
   47.5593   48.4803   18.9434 C   0  0  0  0  0  0  0  0  0  0  0  0
   48.6980   48.9920   20.7421 N   0  0  0  0  0  0  0  0  0  0  0  0
   50.0763   47.3060   20.9270 O   0  0  0  0  0  0  0  0  0  0  0  0
   49.8232   48.4922   20.9359 C   0  0  0  0  0  0  0  0  0  0  0  0
   48.6134   49.9437   20.9793 H   0  0  0  0  0  0  0  0  0  0  0  0
   50.9619   49.5103   21.1140 C   0  0  0  0  0  0  0  0  0  0  0  0
   51.4481   50.2555   19.8469 C   0  0  0  0  0  0  0  0  0  0  0  0
   52.1122   52.5314   17.9017 C   0  0  0  0  0  0  0  0  0  0  0  0
   50.8996   55.9827   21.8681 C   0  0  0  0  0  0  0  0  0  0  0  0
   51.1692   53.6236   21.2895 C   0  0  0  0  0  0  0  0  0  0  0  0
   51.5762   55.2398   19.5934 C   0  0  0  0  0  0  0  0  0  0  0  0
   51.1707   52.2490   21.3983 N   0  0  0  0  0  0  0  0  0  0  0  0
   51.4718   51.7535   20.1889 C   0  0  0  0  0  0  0  0  0  0  0  0
   51.7136   52.6983   19.2869 N   0  0  0  0  0  0  0  0  0  0  0  0
   50.7955   54.6163   22.1730 C   0  0  0  0  0  0  0  0  0  0  0  0
   51.4389   53.9149   19.9332 C   0  0  0  0  0  0  0  0  0  0  0  0
   51.2386   56.2685   20.5467 C   0  0  0  0  0  0  0  0  0  0  0  0
   47.0252   48.2280   15.9225 C   0  0  0  0  0  0  0  0  0  0  0  0
   46.7789   49.7560   15.5671 C   0  0  0  0  0  0  0  0  0  0  0  0
   48.0568   50.5890   15.6357 C   0  0  0  0  0  0  0  0  0  0  0  0
   47.5205   52.9975   16.2940 C   0  0  0  0  0  0  0  0  0  0  0  0
   47.9608   51.7216   16.6047 N   0  0  0  0  0  0  0  0  0  0  0  0
   48.4214   51.7911   17.8911 C   0  0  0  0  0  0  0  0  0  0  0  0
   48.4032   52.9688   18.3517 N   0  0  0  0  0  0  0  0  0  0  0  0
   47.8904   53.7625   17.2900 C   0  0  0  0  0  0  0  0  0  0  0  0
   47.7379   55.2158   17.3251 C   0  0  0  0  0  0  0  0  0  0  0  0
   47.3578   55.8837   16.3262 O   0  0  0  0  0  0  0  0  0  0  0  0
   48.1385   55.7606   18.4640 N   0  0  0  0  0  0  0  0  0  0  0  0
   48.4245   55.1862   19.2107 H   0  0  0  0  0  0  0  0  0  0  0  0
   48.1502   56.7399   18.5639 H   0  0  0  0  0  0  0  0  0  0  0  0
   49.2242   49.5293   15.8855 C   0  0  0  0  0  0  0  0  0  0  0  0
   50.6009   49.8977   15.7289 O   0  0  0  0  0  0  0  0  0  0  0  0
   50.7789   50.0942   14.7959 H   0  0  0  0  0  0  0  0  0  0  0  0
 29 30  1  0  0  0
 29 33  2  0  0  0
 10 12  1  0  0  0
 11 12  2  0  0  0
 12 14  1  0  0  0
 30 31  1  0  0  0
 30 28  1  0  0  0
 31 32  2  0  0  0
 14 15  1  0  0  0
 32 33  1  0  0  0
 33 34  1  0  0  0
 15 21  1  0  0  0
 34 35  2  0  0  0
 34 36  1  0  0  0
 17 23  2  0  0  0
 17 25  1  0  0  0
 18 20  1  0  0  0
 18 24  2  0  0  0
 19 25  2  0  0  0
 20 21  2  0  0  0
 21 22  1  0  0  0
 28 39  1  0  0  0
 28 27  1  0  0  0
 16 22  1  0  0  0
 39 40  1  0  0  0
 18 23  1  0  0  0
 19 24  1  0  0  0
 22 24  1  0  0  0
 27 26  1  0  0  0
 26  1  1  0  0  0
  1  2  1  0  0  0
  1  5  1  0  0  0
  2  3  2  0  0  0
  3  4  1  0  0  0
  4  5  2  0  0  0
  4  6  1  0  0  0
  5  9  1  0  0  0
  6  7  2  0  0  0
  7  8  1  0  0  0
 10  8  1  0  0  0
  8  9  2  0  0  0
 10 13  1  0  0  0
 36 37  1  0  0  0
 36 38  1  0  0  0
 40 41  1  0  0  0
M  END
> <minimizedAffinity>
-9.29449

$$$$
1NDZ


 41 45  0  0  0  0  0  0  0  0999 V2000
   50.1916   54.1951   20.6350 N   0  0  0  0  0  0  0  0  0  0  0  0
   50.7313   54.3424   21.8685 C   0  0  0  0  0  0  0  0  0  0  0  0
   50.9821   53.1424   22.3656 C   0  0  0  0  0  0  0  0  0  0  0  0
   50.5870   52.2075   21.3194 C   0  0  0  0  0  0  0  0  0  0  0  0
   50.0130   52.9240   20.2915 C   0  0  0  0  0  0  0  0  0  0  0  0
   50.4491   50.8765   21.3229 C   0  0  0  0  0  0  0  0  0  0  0  0
   49.9209   50.2828   20.2811 C   0  0  0  0  0  0  0  0  0  0  0  0
   49.4267   51.0150   19.2457 C   0  0  0  0  0  0  0  0  0  0  0  0
   49.5261   52.3499   19.2323 C   0  0  0  0  0  0  0  0  0  0  0  0
   48.9499   50.5288   18.1621 N   0  0  0  0  0  0  0  0  0  0  0  0
   50.6931   50.4599   16.8455 O   0  0  0  0  0  0  0  0  0  0  0  0
   49.5436   50.1873   17.1208 C   0  0  0  0  0  0  0  0  0  0  0  0
   47.9731   50.4068   18.1492 H   0  0  0  0  0  0  0  0  0  0  0  0
   48.7328   49.2790   16.1814 C   0  0  0  0  0  0  0  0  0  0  0  0
   48.5852   47.7927   16.5893 C   0  0  0  0  0  0  0  0  0  0  0  0
   45.7789   46.9438   15.6899 C   0  0  0  0  0  0  0  0  0  0  0  0
   44.2695   47.2382   20.8618 C   0  0  0  0  0  0  0  0  0  0  0  0
   46.1021   47.6304   19.2931 C   0  0  0  0  0  0  0  0  0  0  0  0
   44.0450   46.8158   18.4215 C   0  0  0  0  0  0  0  0  0  0  0  0
   47.3515   47.9503   18.8053 N   0  0  0  0  0  0  0  0  0  0  0  0
   47.3429   47.6955   17.4886 C   0  0  0  0  0  0  0  0  0  0  0  0
   46.1639   47.2673   17.0509 N   0  0  0  0  0  0  0  0  0  0  0  0
   45.6052   47.5654   20.5794 C   0  0  0  0  0  0  0  0  0  0  0  0
   45.3659   47.1243   18.1980 C   0  0  0  0  0  0  0  0  0  0  0  0
   43.5226   46.8093   19.7660 C   0  0  0  0  0  0  0  0  0  0  0  0
   49.8185   55.3806   19.6837 C   0  0  0  0  0  0  0  0  0  0  0  0
   48.3176   55.8518   19.9007 C   0  0  0  0  0  0  0  0  0  0  0  0
   48.1286   57.3464   19.6512 C   0  0  0  0  0  0  0  0  0  0  0  0
   47.0202   57.0448   17.3703 C   0  0  0  0  0  0  0  0  0  0  0  0
   47.0868   57.6364   18.6209 N   0  0  0  0  0  0  0  0  0  0  0  0
   46.1308   58.6151   18.6197 C   0  0  0  0  0  0  0  0  0  0  0  0
   45.5712   58.7476   17.4932 N   0  0  0  0  0  0  0  0  0  0  0  0
   46.2009   57.7811   16.6628 C   0  0  0  0  0  0  0  0  0  0  0  0
   45.9296   57.5920   15.2390 C   0  0  0  0  0  0  0  0  0  0  0  0
   46.4492   56.6619   14.5658 O   0  0  0  0  0  0  0  0  0  0  0  0
   45.1790   58.5485   14.7136 N   0  0  0  0  0  0  0  0  0  0  0  0
   44.7997   59.2498   15.2912 H   0  0  0  0  0  0  0  0  0  0  0  0
   45.0004   58.5583   13.7456 H   0  0  0  0  0  0  0  0  0  0  0  0
   47.8997   57.9782   21.0992 C   0  0  0  0  0  0  0  0  0  0  0  0
   48.8546   57.7798   22.1500 O   0  0  0  0  0  0  0  0  0  0  0  0
   48.8701   56.8428   22.4001 H   0  0  0  0  0  0  0  0  0  0  0  0
 29 30  1  0  0  0
 29 33  2  0  0  0
 10 12  1  0  0  0
 11 12  2  0  0  0
 12 14  1  0  0  0
 30 31  1  0  0  0
 30 28  1  0  0  0
 31 32  2  0  0  0
 14 15  1  0  0  0
 32 33  1  0  0  0
 33 34  1  0  0  0
 15 21  1  0  0  0
 34 35  2  0  0  0
 34 36  1  0  0  0
 17 23  2  0  0  0
 17 25  1  0  0  0
 18 20  1  0  0  0
 18 24  2  0  0  0
 19 25  2  0  0  0
 20 21  2  0  0  0
 21 22  1  0  0  0
 28 39  1  0  0  0
 28 27  1  0  0  0
 16 22  1  0  0  0
 39 40  1  0  0  0
 18 23  1  0  0  0
 19 24  1  0  0  0
 22 24  1  0  0  0
 27 26  1  0  0  0
 26  1  1  0  0  0
  1  2  1  0  0  0
  1  5  1  0  0  0
  2  3  2  0  0  0
  3  4  1  0  0  0
  4  5  2  0  0  0
  4  6  1  0  0  0
  5  9  1  0  0  0
  6  7  2  0  0  0
  7  8  1  0  0  0
 10  8  1  0  0  0
  8  9  2  0  0  0
 10 13  1  0  0  0
 36 37  1  0  0  0
 36 38  1  0  0  0
 40 41  1  0  0  0
M  END
> <minimizedAffinity>
-8.97440

$$$$
1NDZ


 41 45  0  0  0  0  0  0  0  0999 V2000
   48.9641   55.9308   20.1348 N   0  0  0  0  0  0  0  0  0  0  0  0
   49.2090   57.0515   20.8550 C   0  0  0  0  0  0  0  0  0  0  0  0
   50.0266   56.7446   21.8485 C   0  0  0  0  0  0  0  0  0  0  0  0
   50.3157   55.3260   21.6785 C   0  0  0  0  0  0  0  0  0  0  0  0
   49.5477   54.8485   20.6383 C   0  0  0  0  0  0  0  0  0  0  0  0
   50.9315   54.4432   22.4733 C   0  0  0  0  0  0  0  0  0  0  0  0
   50.9223   53.1732   22.1510 C   0  0  0  0  0  0  0  0  0  0  0  0
   50.2128   52.7391   21.0737 C   0  0  0  0  0  0  0  0  0  0  0  0
   49.5638   53.5997   20.2799 C   0  0  0  0  0  0  0  0  0  0  0  0
   50.1914   51.5338   20.6437 N   0  0  0  0  0  0  0  0  0  0  0  0
   52.1549   50.7699   21.2247 O   0  0  0  0  0  0  0  0  0  0  0  0
   51.0270   50.6230   20.8032 C   0  0  0  0  0  0  0  0  0  0  0  0
   49.4007   51.2912   20.1097 H   0  0  0  0  0  0  0  0  0  0  0  0
   50.5066   49.2072   20.5040 C   0  0  0  0  0  0  0  0  0  0  0  0
   48.9726   49.0263   20.3963 C   0  0  0  0  0  0  0  0  0  0  0  0
   46.3374   48.1004   19.1302 C   0  0  0  0  0  0  0  0  0  0  0  0
   48.1490   50.0700   14.4449 C   0  0  0  0  0  0  0  0  0  0  0  0
   48.7194   49.6407   16.7822 C   0  0  0  0  0  0  0  0  0  0  0  0
   46.5601   48.9927   16.0256 C   0  0  0  0  0  0  0  0  0  0  0  0
   49.4243   49.6204   17.9671 N   0  0  0  0  0  0  0  0  0  0  0  0
   48.6157   49.1026   18.9036 C   0  0  0  0  0  0  0  0  0  0  0  0
   47.4332   48.7354   18.4222 N   0  0  0  0  0  0  0  0  0  0  0  0
   49.0090   50.1876   15.5482 C   0  0  0  0  0  0  0  0  0  0  0  0
   47.4279   49.1502   17.0801 C   0  0  0  0  0  0  0  0  0  0  0  0
   46.9008   49.5170   14.7256 C   0  0  0  0  0  0  0  0  0  0  0  0
   48.0979   55.8865   18.8320 C   0  0  0  0  0  0  0  0  0  0  0  0
   47.3236   57.2534   18.6001 C   0  0  0  0  0  0  0  0  0  0  0  0
   46.5661   57.2825   17.2746 C   0  0  0  0  0  0  0  0  0  0  0  0
   46.1510   59.7590   17.7399 C   0  0  0  0  0  0  0  0  0  0  0  0
   45.9668   58.6179   16.9769 N   0  0  0  0  0  0  0  0  0  0  0  0
   45.0240   58.9455   16.0411 C   0  0  0  0  0  0  0  0  0  0  0  0
   44.5507   60.1057   16.2126 N   0  0  0  0  0  0  0  0  0  0  0  0
   45.2265   60.6042   17.3593 C   0  0  0  0  0  0  0  0  0  0  0  0
   44.9726   61.8994   17.9875 C   0  0  0  0  0  0  0  0  0  0  0  0
   45.5119   62.2459   19.0726 O   0  0  0  0  0  0  0  0  0  0  0  0
   44.0483   62.6152   17.3648 N   0  0  0  0  0  0  0  0  0  0  0  0
   43.6630   62.2923   16.5184 H   0  0  0  0  0  0  0  0  0  0  0  0
   43.7467   63.4702   17.7484 H   0  0  0  0  0  0  0  0  0  0  0  0
   47.5960   56.7039   16.2008 C   0  0  0  0  0  0  0  0  0  0  0  0
   47.2154   55.6496   15.3070 O   0  0  0  0  0  0  0  0  0  0  0  0
   47.0599   54.8370   15.8131 H   0  0  0  0  0  0  0  0  0  0  0  0
 29 30  1  0  0  0
 29 33  2  0  0  0
 10 12  1  0  0  0
 11 12  2  0  0  0
 12 14  1  0  0  0
 30 31  1  0  0  0
 30 28  1  0  0  0
 31 32  2  0  0  0
 14 15  1  0  0  0
 32 33  1  0  0  0
 33 34  1  0  0  0
 15 21  1  0  0  0
 34 35  2  0  0  0
 34 36  1  0  0  0
 17 23  2  0  0  0
 17 25  1  0  0  0
 18 20  1  0  0  0
 18 24  2  0  0  0
 19 25  2  0  0  0
 20 21  2  0  0  0
 21 22  1  0  0  0
 28 39  1  0  0  0
 28 27  1  0  0  0
 16 22  1  0  0  0
 39 40  1  0  0  0
 18 23  1  0  0  0
 19 24  1  0  0  0
 22 24  1  0  0  0
 27 26  1  0  0  0
 26  1  1  0  0  0
  1  2  1  0  0  0
  1  5  1  0  0  0
  2  3  2  0  0  0
  3  4  1  0  0  0
  4  5  2  0  0  0
  4  6  1  0  0  0
  5  9  1  0  0  0
  6  7  2  0  0  0
  7  8  1  0  0  0
 10  8  1  0  0  0
  8  9  2  0  0  0
 10 13  1  0  0  0
 36 37  1  0  0  0
 36 38  1  0  0  0
 40 41  1  0  0  0
M  END
> <minimizedAffinity>
-8.95511

$$$$
1NDZ


 41 45  0  0  0  0  0  0  0  0999 V2000
   50.3364   51.5689   18.8937 N   0  0  0  0  0  0  0  0  0  0  0  0
   51.1874   50.5794   19.2560 C   0  0  0  0  0  0  0  0  0  0  0  0
   51.5894   50.8016   20.4965 C   0  0  0  0  0  0  0  0  0  0  0  0
   50.8873   52.0091   20.9131 C   0  0  0  0  0  0  0  0  0  0  0  0
   50.1843   52.4968   19.8325 C   0  0  0  0  0  0  0  0  0  0  0  0
   51.0302   52.7943   21.9871 C   0  0  0  0  0  0  0  0  0  0  0  0
   50.3714   53.9253   22.0481 C   0  0  0  0  0  0  0  0  0  0  0  0
   49.6252   54.3478   20.9912 C   0  0  0  0  0  0  0  0  0  0  0  0
   49.4904   53.5936   19.8935 C   0  0  0  0  0  0  0  0  0  0  0  0
   48.8997   55.4021   20.9773 N   0  0  0  0  0  0  0  0  0  0  0  0
   50.3330   56.9786   20.4907 O   0  0  0  0  0  0  0  0  0  0  0  0
   49.2037   56.5663   20.6527 C   0  0  0  0  0  0  0  0  0  0  0  0
   47.9667   55.2750   21.2646 H   0  0  0  0  0  0  0  0  0  0  0  0
   48.0092   57.4917   20.3670 C   0  0  0  0  0  0  0  0  0  0  0  0
   47.5099   57.5695   18.9035 C   0  0  0  0  0  0  0  0  0  0  0  0
   47.3494   60.5209   18.0861 C   0  0  0  0  0  0  0  0  0  0  0  0
   42.0084   60.1972   18.7804 C   0  0  0  0  0  0  0  0  0  0  0  0
   44.1257   58.9975   19.0057 C   0  0  0  0  0  0  0  0  0  0  0  0
   44.1930   61.2339   18.2003 C   0  0  0  0  0  0  0  0  0  0  0  0
   45.0269   57.9831   19.2513 N   0  0  0  0  0  0  0  0  0  0  0  0
   46.2414   58.4368   18.9078 C   0  0  0  0  0  0  0  0  0  0  0  0
   46.2248   59.6974   18.4890 N   0  0  0  0  0  0  0  0  0  0  0  0
   42.7462   59.0324   19.0445 C   0  0  0  0  0  0  0  0  0  0  0  0
   44.8691   60.0633   18.4502 C   0  0  0  0  0  0  0  0  0  0  0  0
   42.7546   61.2728   18.3021 C   0  0  0  0  0  0  0  0  0  0  0  0
   49.5845   51.6330   17.5225 C   0  0  0  0  0  0  0  0  0  0  0  0
   48.1092   51.0573   17.6392 C   0  0  0  0  0  0  0  0  0  0  0  0
   47.9718   49.6640   17.0295 C   0  0  0  0  0  0  0  0  0  0  0  0
   45.9880   48.0865   17.3424 C   0  0  0  0  0  0  0  0  0  0  0  0
   47.0930   48.7622   17.8329 N   0  0  0  0  0  0  0  0  0  0  0  0
   47.0847   48.5545   19.1852 C   0  0  0  0  0  0  0  0  0  0  0  0
   46.0596   47.9243   19.5745 N   0  0  0  0  0  0  0  0  0  0  0  0
   45.3113   47.6873   18.3896 C   0  0  0  0  0  0  0  0  0  0  0  0
   44.0039   47.0358   18.3375 C   0  0  0  0  0  0  0  0  0  0  0  0
   43.4512   46.7066   17.2538 O   0  0  0  0  0  0  0  0  0  0  0  0
   43.4211   46.9276   19.5220 N   0  0  0  0  0  0  0  0  0  0  0  0
   43.9041   47.2015   20.3351 H   0  0  0  0  0  0  0  0  0  0  0  0
   42.5051   46.5734   19.5895 H   0  0  0  0  0  0  0  0  0  0  0  0
   47.5411   49.9202   15.5139 C   0  0  0  0  0  0  0  0  0  0  0  0
   48.4863   50.4021   14.5496 O   0  0  0  0  0  0  0  0  0  0  0  0
   48.7520   51.3058   14.7809 H   0  0  0  0  0  0  0  0  0  0  0  0
 29 30  1  0  0  0
 29 33  2  0  0  0
 10 12  1  0  0  0
 11 12  2  0  0  0
 12 14  1  0  0  0
 30 31  1  0  0  0
 30 28  1  0  0  0
 31 32  2  0  0  0
 14 15  1  0  0  0
 32 33  1  0  0  0
 33 34  1  0  0  0
 15 21  1  0  0  0
 34 35  2  0  0  0
 34 36  1  0  0  0
 17 23  2  0  0  0
 17 25  1  0  0  0
 18 20  1  0  0  0
 18 24  2  0  0  0
 19 25  2  0  0  0
 20 21  2  0  0  0
 21 22  1  0  0  0
 28 39  1  0  0  0
 28 27  1  0  0  0
 16 22  1  0  0  0
 39 40  1  0  0  0
 18 23  1  0  0  0
 19 24  1  0  0  0
 22 24  1  0  0  0
 27 26  1  0  0  0
 26  1  1  0  0  0
  1  2  1  0  0  0
  1  5  1  0  0  0
  2  3  2  0  0  0
  3  4  1  0  0  0
  4  5  2  0  0  0
  4  6  1  0  0  0
  5  9  1  0  0  0
  6  7  2  0  0  0
  7  8  1  0  0  0
 10  8  1  0  0  0
  8  9  2  0  0  0
 10 13  1  0  0  0
 36 37  1  0  0  0
 36 38  1  0  0  0
 40 41  1  0  0  0
M  END
> <minimizedAffinity>
-8.86401

$$$$
1NDZ


 41 45  0  0  0  0  0  0  0  0999 V2000
   47.5898   54.6480   17.0984 N   0  0  0  0  0  0  0  0  0  0  0  0
   46.9036   54.9802   15.9788 C   0  0  0  0  0  0  0  0  0  0  0  0
   46.4736   53.8700   15.4023 C   0  0  0  0  0  0  0  0  0  0  0  0
   46.9161   52.7914   16.2772 C   0  0  0  0  0  0  0  0  0  0  0  0
   47.6908   53.3355   17.2788 C   0  0  0  0  0  0  0  0  0  0  0  0
   46.9239   51.4630   16.1160 C   0  0  0  0  0  0  0  0  0  0  0  0
   47.5298   50.7121   17.0025 C   0  0  0  0  0  0  0  0  0  0  0  0
   48.2284   51.2773   18.0248 C   0  0  0  0  0  0  0  0  0  0  0  0
   48.2601   52.6052   18.1904 C   0  0  0  0  0  0  0  0  0  0  0  0
   48.7994   50.6320   18.9711 N   0  0  0  0  0  0  0  0  0  0  0  0
   49.2162   48.6897   18.0598 O   0  0  0  0  0  0  0  0  0  0  0  0
   49.3318   49.5053   18.9502 C   0  0  0  0  0  0  0  0  0  0  0  0
   48.8214   51.0921   19.8412 H   0  0  0  0  0  0  0  0  0  0  0  0
   50.2662   49.2087   20.1350 C   0  0  0  0  0  0  0  0  0  0  0  0
   51.7072   49.7697   20.0561 C   0  0  0  0  0  0  0  0  0  0  0  0
   52.0182   52.0510   18.0304 C   0  0  0  0  0  0  0  0  0  0  0  0
   50.7994   55.4702   22.0225 C   0  0  0  0  0  0  0  0  0  0  0  0
   51.2356   53.1316   21.4624 C   0  0  0  0  0  0  0  0  0  0  0  0
   51.3689   54.7389   19.7150 C   0  0  0  0  0  0  0  0  0  0  0  0
   51.3683   51.7653   21.5924 N   0  0  0  0  0  0  0  0  0  0  0  0
   51.6219   51.2712   20.3716 C   0  0  0  0  0  0  0  0  0  0  0  0
   51.7103   52.2132   19.4390 N   0  0  0  0  0  0  0  0  0  0  0  0
   50.8411   54.1071   22.3560 C   0  0  0  0  0  0  0  0  0  0  0  0
   51.3764   53.4150   20.0851 C   0  0  0  0  0  0  0  0  0  0  0  0
   51.0122   55.7549   20.6749 C   0  0  0  0  0  0  0  0  0  0  0  0
   48.2009   55.6815   18.1024 C   0  0  0  0  0  0  0  0  0  0  0  0
   47.7994   57.1703   17.7228 C   0  0  0  0  0  0  0  0  0  0  0  0
   47.6503   58.0695   18.9479 C   0  0  0  0  0  0  0  0  0  0  0  0
   45.1486   58.5772   18.8702 C   0  0  0  0  0  0  0  0  0  0  0  0
   46.4726   58.9838   18.8577 N   0  0  0  0  0  0  0  0  0  0  0  0
   46.4464   60.3244   18.5857 C   0  0  0  0  0  0  0  0  0  0  0  0
   45.2810   60.7478   18.3361 N   0  0  0  0  0  0  0  0  0  0  0  0
   44.4500   59.5999   18.4460 C   0  0  0  0  0  0  0  0  0  0  0  0
   43.0120   59.5754   18.1850 C   0  0  0  0  0  0  0  0  0  0  0  0
   42.1887   59.0273   18.9661 O   0  0  0  0  0  0  0  0  0  0  0  0
   42.6810   60.0852   17.0082 N   0  0  0  0  0  0  0  0  0  0  0  0
   43.3694   60.5015   16.4408 H   0  0  0  0  0  0  0  0  0  0  0  0
   41.7465   60.0477   16.7008 H   0  0  0  0  0  0  0  0  0  0  0  0
   47.6904   57.0737   20.1949 C   0  0  0  0  0  0  0  0  0  0  0  0
   47.9960   57.5520   21.5114 O   0  0  0  0  0  0  0  0  0  0  0  0
   48.9160   57.8579   21.5389 H   0  0  0  0  0  0  0  0  0  0  0  0
 29 30  1  0  0  0
 29 33  2  0  0  0
 10 12  1  0  0  0
 11 12  2  0  0  0
 12 14  1  0  0  0
 30 31  1  0  0  0
 30 28  1  0  0  0
 31 32  2  0  0  0
 14 15  1  0  0  0
 32 33  1  0  0  0
 33 34  1  0  0  0
 15 21  1  0  0  0
 34 35  2  0  0  0
 34 36  1  0  0  0
 17 23  2  0  0  0
 17 25  1  0  0  0
 18 20  1  0  0  0
 18 24  2  0  0  0
 19 25  2  0  0  0
 20 21  2  0  0  0
 21 22  1  0  0  0
 28 39  1  0  0  0
 28 27  1  0  0  0
 16 22  1  0  0  0
 39 40  1  0  0  0
 18 23  1  0  0  0
 19 24  1  0  0  0
 22 24  1  0  0  0
 27 26  1  0  0  0
 26  1  1  0  0  0
  1  2  1  0  0  0
  1  5  1  0  0  0
  2  3  2  0  0  0
  3  4  1  0  0  0
  4  5  2  0  0  0
  4  6  1  0  0  0
  5  9  1  0  0  0
  6  7  2  0  0  0
  7  8  1  0  0  0
 10  8  1  0  0  0
  8  9  2  0  0  0
 10 13  1  0  0  0
 36 37  1  0  0  0
 36 38  1  0  0  0
 40 41  1  0  0  0
M  END
> <minimizedAffinity>
-8.73061

$$$$
1NDZ


 41 45  0  0  0  0  0  0  0  0999 V2000
   49.2108   53.1807   20.5743 N   0  0  0  0  0  0  0  0  0  0  0  0
   49.7682   53.3077   21.8022 C   0  0  0  0  0  0  0  0  0  0  0  0
   50.8888   52.6054   21.8318 C   0  0  0  0  0  0  0  0  0  0  0  0
   51.0205   52.0432   20.4934 C   0  0  0  0  0  0  0  0  0  0  0  0
   49.8894   52.3649   19.7746 C   0  0  0  0  0  0  0  0  0  0  0  0
   51.8505   51.1193   19.9954 C   0  0  0  0  0  0  0  0  0  0  0  0
   51.6560   50.6694   18.7803 C   0  0  0  0  0  0  0  0  0  0  0  0
   50.5666   51.0613   18.0647 C   0  0  0  0  0  0  0  0  0  0  0  0
   49.7054   51.9623   18.5529 C   0  0  0  0  0  0  0  0  0  0  0  0
   50.3227   50.7275   16.8535 N   0  0  0  0  0  0  0  0  0  0  0  0
   49.4634   48.7284   17.0582 O   0  0  0  0  0  0  0  0  0  0  0  0
   49.7343   49.7203   16.4146 C   0  0  0  0  0  0  0  0  0  0  0  0
   50.6468   51.3573   16.1697 H   0  0  0  0  0  0  0  0  0  0  0  0
   49.2632   49.8305   14.9549 C   0  0  0  0  0  0  0  0  0  0  0  0
   47.7849   50.2248   14.7173 C   0  0  0  0  0  0  0  0  0  0  0  0
   46.5576   51.2900   17.3181 C   0  0  0  0  0  0  0  0  0  0  0  0
   44.1827   46.4815   17.9108 C   0  0  0  0  0  0  0  0  0  0  0  0
   45.7438   47.7814   16.5521 C   0  0  0  0  0  0  0  0  0  0  0  0
   44.7684   48.8382   18.4459 C   0  0  0  0  0  0  0  0  0  0  0  0
   46.6107   48.1253   15.5364 N   0  0  0  0  0  0  0  0  0  0  0  0
   46.9390   49.4139   15.7114 C   0  0  0  0  0  0  0  0  0  0  0  0
   46.3872   49.9470   16.7960 N   0  0  0  0  0  0  0  0  0  0  0  0
   44.9972   46.6426   16.7787 C   0  0  0  0  0  0  0  0  0  0  0  0
   45.5378   48.9546   17.3127 C   0  0  0  0  0  0  0  0  0  0  0  0
   44.0394   47.6201   18.7018 C   0  0  0  0  0  0  0  0  0  0  0  0
   47.9093   53.9167   20.1116 C   0  0  0  0  0  0  0  0  0  0  0  0
   47.9862   55.4757   20.4038 C   0  0  0  0  0  0  0  0  0  0  0  0
   48.9443   56.2036   19.4637 C   0  0  0  0  0  0  0  0  0  0  0  0
   50.7870   57.0805   20.9991 C   0  0  0  0  0  0  0  0  0  0  0  0
   50.3442   56.2504   19.9827 N   0  0  0  0  0  0  0  0  0  0  0  0
   51.4650   55.6459   19.4826 C   0  0  0  0  0  0  0  0  0  0  0  0
   52.5295   56.0853   20.0055 N   0  0  0  0  0  0  0  0  0  0  0  0
   52.0945   57.0694   20.9342 C   0  0  0  0  0  0  0  0  0  0  0  0
   52.9759   57.9056   21.7469 C   0  0  0  0  0  0  0  0  0  0  0  0
   52.8180   59.1509   21.8592 O   0  0  0  0  0  0  0  0  0  0  0  0
   54.0053   57.2465   22.2570 N   0  0  0  0  0  0  0  0  0  0  0  0
   54.0744   56.2718   22.1364 H   0  0  0  0  0  0  0  0  0  0  0  0
   54.7013   57.7312   22.7569 H   0  0  0  0  0  0  0  0  0  0  0  0
   48.7302   55.5097   18.0420 C   0  0  0  0  0  0  0  0  0  0  0  0
   47.6582   55.9116   17.1790 O   0  0  0  0  0  0  0  0  0  0  0  0
   46.8099   55.6762   17.5859 H   0  0  0  0  0  0  0  0  0  0  0  0
 29 30  1  0  0  0
 29 33  2  0  0  0
 10 12  1  0  0  0
 11 12  2  0  0  0
 12 14  1  0  0  0
 30 31  1  0  0  0
 30 28  1  0  0  0
 31 32  2  0  0  0
 14 15  1  0  0  0
 32 33  1  0  0  0
 33 34  1  0  0  0
 15 21  1  0  0  0
 34 35  2  0  0  0
 34 36  1  0  0  0
 17 23  2  0  0  0
 17 25  1  0  0  0
 18 20  1  0  0  0
 18 24  2  0  0  0
 19 25  2  0  0  0
 20 21  2  0  0  0
 21 22  1  0  0  0
 28 39  1  0  0  0
 28 27  1  0  0  0
 16 22  1  0  0  0
 39 40  1  0  0  0
 18 23  1  0  0  0
 19 24  1  0  0  0
 22 24  1  0  0  0
 27 26  1  0  0  0
 26  1  1  0  0  0
  1  2  1  0  0  0
  1  5  1  0  0  0
  2  3  2  0  0  0
  3  4  1  0  0  0
  4  5  2  0  0  0
  4  6  1  0  0  0
  5  9  1  0  0  0
  6  7  2  0  0  0
  7  8  1  0  0  0
 10  8  1  0  0  0
  8  9  2  0  0  0
 10 13  1  0  0  0
 36 37  1  0  0  0
 36 38  1  0  0  0
 40 41  1  0  0  0
M  END
> <minimizedAffinity>
-8.52415

$$$$
1NDZ


 41 45  0  0  0  0  0  0  0  0999 V2000
   49.9786   53.1071   20.0896 N   0  0  0  0  0  0  0  0  0  0  0  0
   50.5619   53.6493   21.1853 C   0  0  0  0  0  0  0  0  0  0  0  0
   51.0023   52.6697   21.9574 C   0  0  0  0  0  0  0  0  0  0  0  0
   50.6805   51.4440   21.2372 C   0  0  0  0  0  0  0  0  0  0  0  0
   49.9566   51.7788   20.1131 C   0  0  0  0  0  0  0  0  0  0  0  0
   50.7266   50.1585   21.6058 C   0  0  0  0  0  0  0  0  0  0  0  0
   50.2266   49.2443   20.8114 C   0  0  0  0  0  0  0  0  0  0  0  0
   49.5791   49.6013   19.6687 C   0  0  0  0  0  0  0  0  0  0  0  0
   49.4939   50.8833   19.2931 C   0  0  0  0  0  0  0  0  0  0  0  0
   49.1131   48.7840   18.8010 N   0  0  0  0  0  0  0  0  0  0  0  0
   47.1687   48.2369   19.6357 O   0  0  0  0  0  0  0  0  0  0  0  0
   47.9875   48.2522   18.7409 C   0  0  0  0  0  0  0  0  0  0  0  0
   49.7333   48.5402   18.0764 H   0  0  0  0  0  0  0  0  0  0  0  0
   47.6269   47.6531   17.3714 C   0  0  0  0  0  0  0  0  0  0  0  0
   46.4343   48.2872   16.6145 C   0  0  0  0  0  0  0  0  0  0  0  0
   44.1607   47.0111   18.2292 C   0  0  0  0  0  0  0  0  0  0  0  0
   43.0376   44.0264   13.8767 C   0  0  0  0  0  0  0  0  0  0  0  0
   44.5833   45.6627   14.8288 C   0  0  0  0  0  0  0  0  0  0  0  0
   42.7821   44.9104   16.1869 C   0  0  0  0  0  0  0  0  0  0  0  0
   45.6276   46.5565   14.9377 N   0  0  0  0  0  0  0  0  0  0  0  0
   45.5355   47.1324   16.1455 C   0  0  0  0  0  0  0  0  0  0  0  0
   44.5285   46.6581   16.8707 N   0  0  0  0  0  0  0  0  0  0  0  0
   44.1212   44.9122   13.7663 C   0  0  0  0  0  0  0  0  0  0  0  0
   43.8367   45.7769   16.0233 C   0  0  0  0  0  0  0  0  0  0  0  0
   42.3462   44.0874   15.0853 C   0  0  0  0  0  0  0  0  0  0  0  0
   49.3936   53.9341   18.8965 C   0  0  0  0  0  0  0  0  0  0  0  0
   48.0942   54.7391   19.3270 C   0  0  0  0  0  0  0  0  0  0  0  0
   48.2178   56.2384   19.0653 C   0  0  0  0  0  0  0  0  0  0  0  0
   47.4019   56.2729   16.6456 C   0  0  0  0  0  0  0  0  0  0  0  0
   47.3331   56.7099   17.9580 N   0  0  0  0  0  0  0  0  0  0  0  0
   46.4318   57.7392   17.9595 C   0  0  0  0  0  0  0  0  0  0  0  0
   46.0298   58.0359   16.7976 N   0  0  0  0  0  0  0  0  0  0  0  0
   46.7165   57.1355   15.9385 C   0  0  0  0  0  0  0  0  0  0  0  0
   46.6238   57.1302   14.4798 C   0  0  0  0  0  0  0  0  0  0  0  0
   47.5360   56.6692   13.7425 O   0  0  0  0  0  0  0  0  0  0  0  0
   45.5478   57.7490   14.0176 N   0  0  0  0  0  0  0  0  0  0  0  0
   44.8680   58.0883   14.6437 H   0  0  0  0  0  0  0  0  0  0  0  0
   45.4277   57.8696   13.0479 H   0  0  0  0  0  0  0  0  0  0  0  0
   48.0064   56.9226   20.4921 C   0  0  0  0  0  0  0  0  0  0  0  0
   49.0781   56.9949   21.4416 O   0  0  0  0  0  0  0  0  0  0  0  0
   49.3061   56.1008   21.7405 H   0  0  0  0  0  0  0  0  0  0  0  0
 29 30  1  0  0  0
 29 33  2  0  0  0
 10 12  1  0  0  0
 11 12  2  0  0  0
 12 14  1  0  0  0
 30 31  1  0  0  0
 30 28  1  0  0  0
 31 32  2  0  0  0
 14 15  1  0  0  0
 32 33  1  0  0  0
 33 34  1  0  0  0
 15 21  1  0  0  0
 34 35  2  0  0  0
 34 36  1  0  0  0
 17 23  2  0  0  0
 17 25  1  0  0  0
 18 20  1  0  0  0
 18 24  2  0  0  0
 19 25  2  0  0  0
 20 21  2  0  0  0
 21 22  1  0  0  0
 28 39  1  0  0  0
 28 27  1  0  0  0
 16 22  1  0  0  0
 39 40  1  0  0  0
 18 23  1  0  0  0
 19 24  1  0  0  0
 22 24  1  0  0  0
 27 26  1  0  0  0
 26  1  1  0  0  0
  1  2  1  0  0  0
  1  5  1  0  0  0
  2  3  2  0  0  0
  3  4  1  0  0  0
  4  5  2  0  0  0
  4  6  1  0  0  0
  5  9  1  0  0  0
  6  7  2  0  0  0
  7  8  1  0  0  0
 10  8  1  0  0  0
  8  9  2  0  0  0
 10 13  1  0  0  0
 36 37  1  0  0  0
 36 38  1  0  0  0
 40 41  1  0  0  0
M  END
> <minimizedAffinity>
-8.22786

$$$$
1NDZ


 41 45  0  0  0  0  0  0  0  0999 V2000
   49.5519   53.5122   20.5875 N   0  0  0  0  0  0  0  0  0  0  0  0
   50.0708   53.5358   21.8384 C   0  0  0  0  0  0  0  0  0  0  0  0
   51.0181   52.6161   21.9198 C   0  0  0  0  0  0  0  0  0  0  0  0
   51.0864   52.0220   20.5905 C   0  0  0  0  0  0  0  0  0  0  0  0
   50.0788   52.5631   19.8213 C   0  0  0  0  0  0  0  0  0  0  0  0
   51.7260   50.9395   20.1328 C   0  0  0  0  0  0  0  0  0  0  0  0
   51.4937   50.5247   18.9118 C   0  0  0  0  0  0  0  0  0  0  0  0
   50.5413   51.1258   18.1475 C   0  0  0  0  0  0  0  0  0  0  0  0
   49.8669   52.1924   18.5941 C   0  0  0  0  0  0  0  0  0  0  0  0
   50.2848   50.8349   16.9278 N   0  0  0  0  0  0  0  0  0  0  0  0
   49.5057   48.7974   17.0619 O   0  0  0  0  0  0  0  0  0  0  0  0
   49.7256   49.8255   16.4570 C   0  0  0  0  0  0  0  0  0  0  0  0
   50.5707   51.5053   16.2659 H   0  0  0  0  0  0  0  0  0  0  0  0
   49.2202   49.9798   15.0128 C   0  0  0  0  0  0  0  0  0  0  0  0
   47.7362   50.3781   14.8222 C   0  0  0  0  0  0  0  0  0  0  0  0
   46.5447   51.2967   17.4945 C   0  0  0  0  0  0  0  0  0  0  0  0
   44.2092   46.4472   17.8710 C   0  0  0  0  0  0  0  0  0  0  0  0
   45.7402   47.8275   16.5580 C   0  0  0  0  0  0  0  0  0  0  0  0
   44.7891   48.7767   18.5200 C   0  0  0  0  0  0  0  0  0  0  0  0
   46.5884   48.2303   15.5483 N   0  0  0  0  0  0  0  0  0  0  0  0
   46.9115   49.5102   15.7856 C   0  0  0  0  0  0  0  0  0  0  0  0
   46.3741   49.9818   16.9053 N   0  0  0  0  0  0  0  0  0  0  0  0
   45.0043   46.6732   16.7362 C   0  0  0  0  0  0  0  0  0  0  0  0
   45.5393   48.9577   17.3824 C   0  0  0  0  0  0  0  0  0  0  0  0
   44.0718   47.5417   18.7229 C   0  0  0  0  0  0  0  0  0  0  0  0
   48.4533   54.4972   20.0653 C   0  0  0  0  0  0  0  0  0  0  0  0
   49.0951   55.7448   19.3214 C   0  0  0  0  0  0  0  0  0  0  0  0
   48.6091   57.0786   19.8840 C   0  0  0  0  0  0  0  0  0  0  0  0
   46.7409   57.9082   18.3531 C   0  0  0  0  0  0  0  0  0  0  0  0
   47.1821   57.3654   19.5486 N   0  0  0  0  0  0  0  0  0  0  0  0
   46.0837   57.3193   20.3629 C   0  0  0  0  0  0  0  0  0  0  0  0
   45.0663   57.8577   19.8389 N   0  0  0  0  0  0  0  0  0  0  0  0
   45.5123   58.3071   18.5663 C   0  0  0  0  0  0  0  0  0  0  0  0
   44.7001   59.0521   17.6062 C   0  0  0  0  0  0  0  0  0  0  0  0
   43.5214   58.7188   17.3098 O   0  0  0  0  0  0  0  0  0  0  0  0
   45.3585   60.0338   17.0084 N   0  0  0  0  0  0  0  0  0  0  0  0
   46.2790   60.2484   17.2838 H   0  0  0  0  0  0  0  0  0  0  0  0
   44.9273   60.5489   16.2887 H   0  0  0  0  0  0  0  0  0  0  0  0
   48.9850   57.0310   21.4347 C   0  0  0  0  0  0  0  0  0  0  0  0
   48.8190   58.1845   22.2698 O   0  0  0  0  0  0  0  0  0  0  0  0
   49.4375   58.8775   21.9905 H   0  0  0  0  0  0  0  0  0  0  0  0
 29 30  1  0  0  0
 29 33  2  0  0  0
 10 12  1  0  0  0
 11 12  2  0  0  0
 12 14  1  0  0  0
 30 31  1  0  0  0
 30 28  1  0  0  0
 31 32  2  0  0  0
 14 15  1  0  0  0
 32 33  1  0  0  0
 33 34  1  0  0  0
 15 21  1  0  0  0
 34 35  2  0  0  0
 34 36  1  0  0  0
 17 23  2  0  0  0
 17 25  1  0  0  0
 18 20  1  0  0  0
 18 24  2  0  0  0
 19 25  2  0  0  0
 20 21  2  0  0  0
 21 22  1  0  0  0
 28 39  1  0  0  0
 28 27  1  0  0  0
 16 22  1  0  0  0
 39 40  1  0  0  0
 18 23  1  0  0  0
 19 24  1  0  0  0
 22 24  1  0  0  0
 27 26  1  0  0  0
 26  1  1  0  0  0
  1  2  1  0  0  0
  1  5  1  0  0  0
  2  3  2  0  0  0
  3  4  1  0  0  0
  4  5  2  0  0  0
  4  6  1  0  0  0
  5  9  1  0  0  0
  6  7  2  0  0  0
  7  8  1  0  0  0
 10  8  1  0  0  0
  8  9  2  0  0  0
 10 13  1  0  0  0
 36 37  1  0  0  0
 36 38  1  0  0  0
 40 41  1  0  0  0
M  END
> <minimizedAffinity>
-8.15663

$$$$
1NDZ


 41 45  0  0  0  0  0  0  0  0999 V2000
   49.8616   52.7859   20.0916 N   0  0  0  0  0  0  0  0  0  0  0  0
   50.4517   53.3138   21.1906 C   0  0  0  0  0  0  0  0  0  0  0  0
   50.8886   52.3241   21.9517 C   0  0  0  0  0  0  0  0  0  0  0  0
   50.5570   51.1075   21.2206 C   0  0  0  0  0  0  0  0  0  0  0  0
   49.8316   51.4576   20.1022 C   0  0  0  0  0  0  0  0  0  0  0  0
   50.5965   49.8182   21.5766 C   0  0  0  0  0  0  0  0  0  0  0  0
   50.0884   48.9148   20.7750 C   0  0  0  0  0  0  0  0  0  0  0  0
   49.4395   49.2868   19.6379 C   0  0  0  0  0  0  0  0  0  0  0  0
   49.3609   50.5729   19.2750 C   0  0  0  0  0  0  0  0  0  0  0  0
   48.9656   48.4809   18.7638 N   0  0  0  0  0  0  0  0  0  0  0  0
   46.9134   48.1668   19.4463 O   0  0  0  0  0  0  0  0  0  0  0  0
   47.8005   48.0606   18.6259 C   0  0  0  0  0  0  0  0  0  0  0  0
   49.6155   48.1445   18.1052 H   0  0  0  0  0  0  0  0  0  0  0  0
   47.4949   47.4382   17.2533 C   0  0  0  0  0  0  0  0  0  0  0  0
   46.3468   48.0717   16.4300 C   0  0  0  0  0  0  0  0  0  0  0  0
   43.9470   46.9930   18.0055 C   0  0  0  0  0  0  0  0  0  0  0  0
   42.9100   43.7753   13.8001 C   0  0  0  0  0  0  0  0  0  0  0  0
   44.4754   45.4094   14.7233 C   0  0  0  0  0  0  0  0  0  0  0  0
   42.5812   44.8179   16.0336 C   0  0  0  0  0  0  0  0  0  0  0  0
   45.5498   46.2674   14.8279 N   0  0  0  0  0  0  0  0  0  0  0  0
   45.4240   46.9242   15.9904 C   0  0  0  0  0  0  0  0  0  0  0  0
   44.3645   46.5378   16.6925 N   0  0  0  0  0  0  0  0  0  0  0  0
   44.0338   44.6093   13.6886 C   0  0  0  0  0  0  0  0  0  0  0  0
   43.6778   45.6304   15.8689 C   0  0  0  0  0  0  0  0  0  0  0  0
   42.1646   43.9420   14.9659 C   0  0  0  0  0  0  0  0  0  0  0  0
   49.2778   53.6280   18.9085 C   0  0  0  0  0  0  0  0  0  0  0  0
   47.9381   54.3708   19.3272 C   0  0  0  0  0  0  0  0  0  0  0  0
   48.0198   55.8834   19.1347 C   0  0  0  0  0  0  0  0  0  0  0  0
   50.3336   56.7895   19.7239 C   0  0  0  0  0  0  0  0  0  0  0  0
   49.0110   56.5324   20.0444 N   0  0  0  0  0  0  0  0  0  0  0  0
   48.8846   56.8388   21.3717 C   0  0  0  0  0  0  0  0  0  0  0  0
   49.9875   57.1508   21.9064 N   0  0  0  0  0  0  0  0  0  0  0  0
   50.9392   57.0452   20.8560 C   0  0  0  0  0  0  0  0  0  0  0  0
   52.3786   57.2533   21.0022 C   0  0  0  0  0  0  0  0  0  0  0  0
   53.2302   56.6032   20.3385 O   0  0  0  0  0  0  0  0  0  0  0  0
   52.6930   58.1045   21.9670 N   0  0  0  0  0  0  0  0  0  0  0  0
   51.9825   58.5841   22.4512 H   0  0  0  0  0  0  0  0  0  0  0  0
   53.6371   58.2576   22.2000 H   0  0  0  0  0  0  0  0  0  0  0  0
   48.2459   56.0858   17.5675 C   0  0  0  0  0  0  0  0  0  0  0  0
   47.3154   55.5572   16.6135 O   0  0  0  0  0  0  0  0  0  0  0  0
   47.3398   54.5880   16.6408 H   0  0  0  0  0  0  0  0  0  0  0  0
 29 30  1  0  0  0
 29 33  2  0  0  0
 10 12  1  0  0  0
 11 12  2  0  0  0
 12 14  1  0  0  0
 30 31  1  0  0  0
 30 28  1  0  0  0
 31 32  2  0  0  0
 14 15  1  0  0  0
 32 33  1  0  0  0
 33 34  1  0  0  0
 15 21  1  0  0  0
 34 35  2  0  0  0
 34 36  1  0  0  0
 17 23  2  0  0  0
 17 25  1  0  0  0
 18 20  1  0  0  0
 18 24  2  0  0  0
 19 25  2  0  0  0
 20 21  2  0  0  0
 21 22  1  0  0  0
 28 39  1  0  0  0
 28 27  1  0  0  0
 16 22  1  0  0  0
 39 40  1  0  0  0
 18 23  1  0  0  0
 19 24  1  0  0  0
 22 24  1  0  0  0
 27 26  1  0  0  0
 26  1  1  0  0  0
  1  2  1  0  0  0
  1  5  1  0  0  0
  2  3  2  0  0  0
  3  4  1  0  0  0
  4  5  2  0  0  0
  4  6  1  0  0  0
  5  9  1  0  0  0
  6  7  2  0  0  0
  7  8  1  0  0  0
 10  8  1  0  0  0
  8  9  2  0  0  0
 10 13  1  0  0  0
 36 37  1  0  0  0
 36 38  1  0  0  0
 40 41  1  0  0  0
M  END
> <minimizedAffinity>
-8.14123

$$$$
1NDZ


 41 45  0  0  0  0  0  0  0  0999 V2000
   50.1282   54.9803   20.2612 N   0  0  0  0  0  0  0  0  0  0  0  0
   51.0744   55.0042   21.2300 C   0  0  0  0  0  0  0  0  0  0  0  0
   50.8057   56.0002   22.0580 C   0  0  0  0  0  0  0  0  0  0  0  0
   49.5743   56.5936   21.5518 C   0  0  0  0  0  0  0  0  0  0  0  0
   49.2456   55.9676   20.3687 C   0  0  0  0  0  0  0  0  0  0  0  0
   48.9351   57.7243   21.8733 C   0  0  0  0  0  0  0  0  0  0  0  0
   47.9158   58.1143   21.1483 C   0  0  0  0  0  0  0  0  0  0  0  0
   47.5681   57.4332   20.0224 C   0  0  0  0  0  0  0  0  0  0  0  0
   48.2112   56.3154   19.6633 C   0  0  0  0  0  0  0  0  0  0  0  0
   46.5558   57.6977   19.2854 N   0  0  0  0  0  0  0  0  0  0  0  0
   47.2828   59.3214   18.0159 O   0  0  0  0  0  0  0  0  0  0  0  0
   46.4651   58.4778   18.3176 C   0  0  0  0  0  0  0  0  0  0  0  0
   45.7293   57.2152   19.5163 H   0  0  0  0  0  0  0  0  0  0  0  0
   45.2375   58.2544   17.4188 C   0  0  0  0  0  0  0  0  0  0  0  0
   45.1133   59.1448   16.1582 C   0  0  0  0  0  0  0  0  0  0  0  0
   46.5494   56.9681   14.5445 C   0  0  0  0  0  0  0  0  0  0  0  0
   41.7970   55.8369   12.2535 C   0  0  0  0  0  0  0  0  0  0  0  0
   42.9673   57.3454   13.7792 C   0  0  0  0  0  0  0  0  0  0  0  0
   44.2248   55.6133   12.7431 C   0  0  0  0  0  0  0  0  0  0  0  0
   43.1966   58.3576   14.6871 N   0  0  0  0  0  0  0  0  0  0  0  0
   44.4833   58.2778   15.0570 C   0  0  0  0  0  0  0  0  0  0  0  0
   45.1441   57.3105   14.4302 N   0  0  0  0  0  0  0  0  0  0  0  0
   41.8077   56.8824   13.1904 C   0  0  0  0  0  0  0  0  0  0  0  0
   44.1805   56.6291   13.6683 C   0  0  0  0  0  0  0  0  0  0  0  0
   43.0143   55.1781   12.0902 C   0  0  0  0  0  0  0  0  0  0  0  0
   50.0490   53.9052   19.1264 C   0  0  0  0  0  0  0  0  0  0  0  0
   51.0332   52.6904   19.4048 C   0  0  0  0  0  0  0  0  0  0  0  0
   50.3020   51.4405   19.8893 C   0  0  0  0  0  0  0  0  0  0  0  0
   50.4196   50.6027   17.4797 C   0  0  0  0  0  0  0  0  0  0  0  0
   49.9474   50.5073   18.7782 N   0  0  0  0  0  0  0  0  0  0  0  0
   49.0026   49.5180   18.7577 C   0  0  0  0  0  0  0  0  0  0  0  0
   48.7810   49.0807   17.5918 N   0  0  0  0  0  0  0  0  0  0  0  0
   49.6448   49.8368   16.7537 C   0  0  0  0  0  0  0  0  0  0  0  0
   49.7063   49.7316   15.2971 C   0  0  0  0  0  0  0  0  0  0  0  0
   50.7101   49.2698   14.6908 O   0  0  0  0  0  0  0  0  0  0  0  0
   48.6591   50.2640   14.6853 N   0  0  0  0  0  0  0  0  0  0  0  0
   47.9032   50.6089   15.2135 H   0  0  0  0  0  0  0  0  0  0  0  0
   48.6366   50.3149   13.7025 H   0  0  0  0  0  0  0  0  0  0  0  0
   51.2226   50.8519   21.0530 C   0  0  0  0  0  0  0  0  0  0  0  0
   50.8358   49.6762   21.7765 O   0  0  0  0  0  0  0  0  0  0  0  0
   50.0414   49.8654   22.2999 H   0  0  0  0  0  0  0  0  0  0  0  0
 29 30  1  0  0  0
 29 33  2  0  0  0
 10 12  1  0  0  0
 11 12  2  0  0  0
 12 14  1  0  0  0
 30 31  1  0  0  0
 30 28  1  0  0  0
 31 32  2  0  0  0
 14 15  1  0  0  0
 32 33  1  0  0  0
 33 34  1  0  0  0
 15 21  1  0  0  0
 34 35  2  0  0  0
 34 36  1  0  0  0
 17 23  2  0  0  0
 17 25  1  0  0  0
 18 20  1  0  0  0
 18 24  2  0  0  0
 19 25  2  0  0  0
 20 21  2  0  0  0
 21 22  1  0  0  0
 28 39  1  0  0  0
 28 27  1  0  0  0
 16 22  1  0  0  0
 39 40  1  0  0  0
 18 23  1  0  0  0
 19 24  1  0  0  0
 22 24  1  0  0  0
 27 26  1  0  0  0
 26  1  1  0  0  0
  1  2  1  0  0  0
  1  5  1  0  0  0
  2  3  2  0  0  0
  3  4  1  0  0  0
  4  5  2  0  0  0
  4  6  1  0  0  0
  5  9  1  0  0  0
  6  7  2  0  0  0
  7  8  1  0  0  0
 10  8  1  0  0  0
  8  9  2  0  0  0
 10 13  1  0  0  0
 36 37  1  0  0  0
 36 38  1  0  0  0
 40 41  1  0  0  0
M  END
> <minimizedAffinity>
-8.14042

$$$$
1NDZ


 41 45  0  0  0  0  0  0  0  0999 V2000
   50.2126   54.9140   20.3457 N   0  0  0  0  0  0  0  0  0  0  0  0
   51.1875   54.8615   21.2846 C   0  0  0  0  0  0  0  0  0  0  0  0
   50.9825   55.8312   22.1606 C   0  0  0  0  0  0  0  0  0  0  0  0
   49.7606   56.4913   21.7179 C   0  0  0  0  0  0  0  0  0  0  0  0
   49.3727   55.9284   20.5211 C   0  0  0  0  0  0  0  0  0  0  0  0
   49.1758   57.6308   22.1053 C   0  0  0  0  0  0  0  0  0  0  0  0
   48.1512   58.0890   21.4292 C   0  0  0  0  0  0  0  0  0  0  0  0
   47.7440   57.4694   20.2878 C   0  0  0  0  0  0  0  0  0  0  0  0
   48.3321   56.3443   19.8634 C   0  0  0  0  0  0  0  0  0  0  0  0
   46.7212   57.8026   19.5943 N   0  0  0  0  0  0  0  0  0  0  0  0
   47.5426   59.2375   18.1651 O   0  0  0  0  0  0  0  0  0  0  0  0
   46.6555   58.5204   18.5776 C   0  0  0  0  0  0  0  0  0  0  0  0
   45.8622   57.4394   19.9097 H   0  0  0  0  0  0  0  0  0  0  0  0
   45.3523   58.3852   17.7727 C   0  0  0  0  0  0  0  0  0  0  0  0
   44.0227   58.5701   18.5442 C   0  0  0  0  0  0  0  0  0  0  0  0
   44.1644   61.6289   18.3759 C   0  0  0  0  0  0  0  0  0  0  0  0
   40.3824   61.3751   14.5359 C   0  0  0  0  0  0  0  0  0  0  0  0
   41.6703   60.0757   16.1563 C   0  0  0  0  0  0  0  0  0  0  0  0
   42.0385   62.4233   16.0663 C   0  0  0  0  0  0  0  0  0  0  0  0
   42.1696   58.9997   16.8593 N   0  0  0  0  0  0  0  0  0  0  0  0
   43.1230   59.4664   17.6791 C   0  0  0  0  0  0  0  0  0  0  0  0
   43.2696   60.7848   17.6064 N   0  0  0  0  0  0  0  0  0  0  0  0
   40.7869   60.1541   15.0984 C   0  0  0  0  0  0  0  0  0  0  0  0
   42.4168   61.2019   16.5710 C   0  0  0  0  0  0  0  0  0  0  0  0
   41.0693   62.4954   15.0004 C   0  0  0  0  0  0  0  0  0  0  0  0
   50.0579   53.8913   19.1710 C   0  0  0  0  0  0  0  0  0  0  0  0
   51.0749   52.6802   19.3148 C   0  0  0  0  0  0  0  0  0  0  0  0
   50.4016   51.4030   19.8119 C   0  0  0  0  0  0  0  0  0  0  0  0
   50.4702   50.5873   17.3928 C   0  0  0  0  0  0  0  0  0  0  0  0
   50.0440   50.4659   18.7051 N   0  0  0  0  0  0  0  0  0  0  0  0
   49.1342   49.4442   18.7067 C   0  0  0  0  0  0  0  0  0  0  0  0
   48.8903   49.0078   17.5449 N   0  0  0  0  0  0  0  0  0  0  0  0
   49.6995   49.7999   16.6858 C   0  0  0  0  0  0  0  0  0  0  0  0
   49.7173   49.7074   15.2271 C   0  0  0  0  0  0  0  0  0  0  0  0
   50.7015   49.2490   14.5871 O   0  0  0  0  0  0  0  0  0  0  0  0
   48.6536   50.2474   14.6516 N   0  0  0  0  0  0  0  0  0  0  0  0
   47.9145   50.5890   15.2051 H   0  0  0  0  0  0  0  0  0  0  0  0
   48.6019   50.3070   13.6703 H   0  0  0  0  0  0  0  0  0  0  0  0
   51.3775   50.8380   20.9418 C   0  0  0  0  0  0  0  0  0  0  0  0
   52.6699   50.3156   20.6067 O   0  0  0  0  0  0  0  0  0  0  0  0
   52.5655   49.5047   20.0848 H   0  0  0  0  0  0  0  0  0  0  0  0
 29 30  1  0  0  0
 29 33  2  0  0  0
 10 12  1  0  0  0
 11 12  2  0  0  0
 12 14  1  0  0  0
 30 31  1  0  0  0
 30 28  1  0  0  0
 31 32  2  0  0  0
 14 15  1  0  0  0
 32 33  1  0  0  0
 33 34  1  0  0  0
 15 21  1  0  0  0
 34 35  2  0  0  0
 34 36  1  0  0  0
 17 23  2  0  0  0
 17 25  1  0  0  0
 18 20  1  0  0  0
 18 24  2  0  0  0
 19 25  2  0  0  0
 20 21  2  0  0  0
 21 22  1  0  0  0
 28 39  1  0  0  0
 28 27  1  0  0  0
 16 22  1  0  0  0
 39 40  1  0  0  0
 18 23  1  0  0  0
 19 24  1  0  0  0
 22 24  1  0  0  0
 27 26  1  0  0  0
 26  1  1  0  0  0
  1  2  1  0  0  0
  1  5  1  0  0  0
  2  3  2  0  0  0
  3  4  1  0  0  0
  4  5  2  0  0  0
  4  6  1  0  0  0
  5  9  1  0  0  0
  6  7  2  0  0  0
  7  8  1  0  0  0
 10  8  1  0  0  0
  8  9  2  0  0  0
 10 13  1  0  0  0
 36 37  1  0  0  0
 36 38  1  0  0  0
 40 41  1  0  0  0
M  END
> <minimizedAffinity>
-8.13130

$$$$
1NDZ


 41 45  0  0  0  0  0  0  0  0999 V2000
   50.2517   54.8725   20.4063 N   0  0  0  0  0  0  0  0  0  0  0  0
   51.1183   54.7728   21.4425 C   0  0  0  0  0  0  0  0  0  0  0  0
   50.8864   55.7669   22.2838 C   0  0  0  0  0  0  0  0  0  0  0  0
   49.7624   56.4962   21.7099 C   0  0  0  0  0  0  0  0  0  0  0  0
   49.4654   55.9408   20.4840 C   0  0  0  0  0  0  0  0  0  0  0  0
   49.2155   57.6763   22.0240 C   0  0  0  0  0  0  0  0  0  0  0  0
   48.2985   58.1882   21.2403 C   0  0  0  0  0  0  0  0  0  0  0  0
   47.9729   57.5781   20.0680 C   0  0  0  0  0  0  0  0  0  0  0  0
   48.5279   56.4115   19.7173 C   0  0  0  0  0  0  0  0  0  0  0  0
   47.0514   57.9647   19.2684 N   0  0  0  0  0  0  0  0  0  0  0  0
   45.2199   57.4759   20.3560 O   0  0  0  0  0  0  0  0  0  0  0  0
   45.8186   58.0091   19.4457 C   0  0  0  0  0  0  0  0  0  0  0  0
   47.3613   58.2714   18.3857 H   0  0  0  0  0  0  0  0  0  0  0  0
   45.0523   58.8927   18.4473 C   0  0  0  0  0  0  0  0  0  0  0  0
   45.3370   58.6687   16.9420 C   0  0  0  0  0  0  0  0  0  0  0  0
   44.9128   58.5405   13.9075 C   0  0  0  0  0  0  0  0  0  0  0  0
   39.6090   58.3335   14.8771 C   0  0  0  0  0  0  0  0  0  0  0  0
   41.8149   58.5900   15.8974 C   0  0  0  0  0  0  0  0  0  0  0  0
   41.7025   58.3423   13.5351 C   0  0  0  0  0  0  0  0  0  0  0  0
   42.7980   58.7268   16.8546 N   0  0  0  0  0  0  0  0  0  0  0  0
   43.9797   58.6832   16.2217 C   0  0  0  0  0  0  0  0  0  0  0  0
   43.8583   58.5692   14.9037 N   0  0  0  0  0  0  0  0  0  0  0  0
   40.4477   58.4288   15.9989 C   0  0  0  0  0  0  0  0  0  0  0  0
   42.4828   58.4134   14.6645 C   0  0  0  0  0  0  0  0  0  0  0  0
   40.2689   58.2338   13.6535 C   0  0  0  0  0  0  0  0  0  0  0  0
   50.1541   53.8437   19.2308 C   0  0  0  0  0  0  0  0  0  0  0  0
   51.0939   52.5874   19.4762 C   0  0  0  0  0  0  0  0  0  0  0  0
   50.3366   51.3881   20.0416 C   0  0  0  0  0  0  0  0  0  0  0  0
   48.8170   49.5145   19.2034 C   0  0  0  0  0  0  0  0  0  0  0  0
   49.7344   50.5277   18.9794 N   0  0  0  0  0  0  0  0  0  0  0  0
   50.0661   50.4417   17.6549 C   0  0  0  0  0  0  0  0  0  0  0  0
   49.5385   49.4437   17.0848 N   0  0  0  0  0  0  0  0  0  0  0  0
   48.7898   48.7996   18.1069 C   0  0  0  0  0  0  0  0  0  0  0  0
   48.0444   47.5529   17.9439 C   0  0  0  0  0  0  0  0  0  0  0  0
   48.5860   46.4828   17.5567 O   0  0  0  0  0  0  0  0  0  0  0  0
   46.7411   47.6887   18.1372 N   0  0  0  0  0  0  0  0  0  0  0  0
   46.3756   48.5510   18.4409 H   0  0  0  0  0  0  0  0  0  0  0  0
   46.1378   46.9274   17.9773 H   0  0  0  0  0  0  0  0  0  0  0  0
   51.3679   50.6831   21.0355 C   0  0  0  0  0  0  0  0  0  0  0  0
   52.6131   50.1585   20.5562 O   0  0  0  0  0  0  0  0  0  0  0  0
   52.4421   49.4079   19.9663 H   0  0  0  0  0  0  0  0  0  0  0  0
 29 30  1  0  0  0
 29 33  2  0  0  0
 10 12  1  0  0  0
 11 12  2  0  0  0
 12 14  1  0  0  0
 30 31  1  0  0  0
 30 28  1  0  0  0
 31 32  2  0  0  0
 14 15  1  0  0  0
 32 33  1  0  0  0
 33 34  1  0  0  0
 15 21  1  0  0  0
 34 35  2  0  0  0
 34 36  1  0  0  0
 17 23  2  0  0  0
 17 25  1  0  0  0
 18 20  1  0  0  0
 18 24  2  0  0  0
 19 25  2  0  0  0
 20 21  2  0  0  0
 21 22  1  0  0  0
 28 39  1  0  0  0
 28 27  1  0  0  0
 16 22  1  0  0  0
 39 40  1  0  0  0
 18 23  1  0  0  0
 19 24  1  0  0  0
 22 24  1  0  0  0
 27 26  1  0  0  0
 26  1  1  0  0  0
  1  2  1  0  0  0
  1  5  1  0  0  0
  2  3  2  0  0  0
  3  4  1  0  0  0
  4  5  2  0  0  0
  4  6  1  0  0  0
  5  9  1  0  0  0
  6  7  2  0  0  0
  7  8  1  0  0  0
 10  8  1  0  0  0
  8  9  2  0  0  0
 10 13  1  0  0  0
 36 37  1  0  0  0
 36 38  1  0  0  0
 40 41  1  0  0  0
M  END
> <minimizedAffinity>
-8.00324

$$$$
1NDZ


 41 45  0  0  0  0  0  0  0  0999 V2000
   50.4667   51.5771   19.8040 N   0  0  0  0  0  0  0  0  0  0  0  0
   50.8776   51.2792   21.0598 C   0  0  0  0  0  0  0  0  0  0  0  0
   50.6169   52.3111   21.8452 C   0  0  0  0  0  0  0  0  0  0  0  0
   49.9643   53.2892   20.9837 C   0  0  0  0  0  0  0  0  0  0  0  0
   49.9798   52.8083   19.6922 C   0  0  0  0  0  0  0  0  0  0  0  0
   49.6411   54.5724   21.1820 C   0  0  0  0  0  0  0  0  0  0  0  0
   49.1965   55.2855   20.1766 C   0  0  0  0  0  0  0  0  0  0  0  0
   49.1547   54.7596   18.9219 C   0  0  0  0  0  0  0  0  0  0  0  0
   49.5009   53.4869   18.6929 C   0  0  0  0  0  0  0  0  0  0  0  0
   48.6815   55.3523   17.8910 N   0  0  0  0  0  0  0  0  0  0  0  0
   47.3997   53.8273   16.9923 O   0  0  0  0  0  0  0  0  0  0  0  0
   47.8155   54.9632   17.0837 C   0  0  0  0  0  0  0  0  0  0  0  0
   49.0559   56.2446   17.7095 H   0  0  0  0  0  0  0  0  0  0  0  0
   47.1985   56.0700   16.2125 C   0  0  0  0  0  0  0  0  0  0  0  0
   47.3264   57.5257   16.7241 C   0  0  0  0  0  0  0  0  0  0  0  0
   46.1741   57.7386   19.5581 C   0  0  0  0  0  0  0  0  0  0  0  0
   41.7524   59.9154   17.3617 C   0  0  0  0  0  0  0  0  0  0  0  0
   43.9148   58.8815   16.8843 C   0  0  0  0  0  0  0  0  0  0  0  0
   43.2650   59.1039   19.1609 C   0  0  0  0  0  0  0  0  0  0  0  0
   45.0059   58.4103   16.1851 N   0  0  0  0  0  0  0  0  0  0  0  0
   45.9104   57.9999   17.0865 C   0  0  0  0  0  0  0  0  0  0  0  0
   45.4866   58.1233   18.3395 N   0  0  0  0  0  0  0  0  0  0  0  0
   42.7729   59.5397   16.4738 C   0  0  0  0  0  0  0  0  0  0  0  0
   44.2438   58.7724   18.2544 C   0  0  0  0  0  0  0  0  0  0  0  0
   42.0497   59.7381   18.7118 C   0  0  0  0  0  0  0  0  0  0  0  0
   50.5335   50.5889   18.5921 C   0  0  0  0  0  0  0  0  0  0  0  0
   49.2557   49.6476   18.5364 C   0  0  0  0  0  0  0  0  0  0  0  0
   48.8446   49.2983   17.1079 C   0  0  0  0  0  0  0  0  0  0  0  0
   46.3997   48.5742   17.2507 C   0  0  0  0  0  0  0  0  0  0  0  0
   47.7411   48.2933   17.0501 N   0  0  0  0  0  0  0  0  0  0  0  0
   47.8259   46.9306   16.9633 C   0  0  0  0  0  0  0  0  0  0  0  0
   46.7199   46.3589   17.1862 N   0  0  0  0  0  0  0  0  0  0  0  0
   45.8121   47.4209   17.4473 C   0  0  0  0  0  0  0  0  0  0  0  0
   44.4086   47.2542   17.8202 C   0  0  0  0  0  0  0  0  0  0  0  0
   43.8080   48.0575   18.5832 O   0  0  0  0  0  0  0  0  0  0  0  0
   43.8729   46.1304   17.3680 N   0  0  0  0  0  0  0  0  0  0  0  0
   44.3921   45.5418   16.7736 H   0  0  0  0  0  0  0  0  0  0  0  0
   42.9556   45.8836   17.6263 H   0  0  0  0  0  0  0  0  0  0  0  0
   48.5702   50.7049   16.4046 C   0  0  0  0  0  0  0  0  0  0  0  0
   48.4195   50.8015   14.9821 O   0  0  0  0  0  0  0  0  0  0  0  0
   49.2615   50.5848   14.5523 H   0  0  0  0  0  0  0  0  0  0  0  0
 29 30  1  0  0  0
 29 33  2  0  0  0
 10 12  1  0  0  0
 11 12  2  0  0  0
 12 14  1  0  0  0
 30 31  1  0  0  0
 30 28  1  0  0  0
 31 32  2  0  0  0
 14 15  1  0  0  0
 32 33  1  0  0  0
 33 34  1  0  0  0
 15 21  1  0  0  0
 34 35  2  0  0  0
 34 36  1  0  0  0
 17 23  2  0  0  0
 17 25  1  0  0  0
 18 20  1  0  0  0
 18 24  2  0  0  0
 19 25  2  0  0  0
 20 21  2  0  0  0
 21 22  1  0  0  0
 28 39  1  0  0  0
 28 27  1  0  0  0
 16 22  1  0  0  0
 39 40  1  0  0  0
 18 23  1  0  0  0
 19 24  1  0  0  0
 22 24  1  0  0  0
 27 26  1  0  0  0
 26  1  1  0  0  0
  1  2  1  0  0  0
  1  5  1  0  0  0
  2  3  2  0  0  0
  3  4  1  0  0  0
  4  5  2  0  0  0
  4  6  1  0  0  0
  5  9  1  0  0  0
  6  7  2  0  0  0
  7  8  1  0  0  0
 10  8  1  0  0  0
  8  9  2  0  0  0
 10 13  1  0  0  0
 36 37  1  0  0  0
 36 38  1  0  0  0
 40 41  1  0  0  0
M  END
> <minimizedAffinity>
-7.95840

$$$$
1NDZ


 41 45  0  0  0  0  0  0  0  0999 V2000
   48.4340   54.4249   17.8523 N   0  0  0  0  0  0  0  0  0  0  0  0
   48.4305   53.0880   18.0695 C   0  0  0  0  0  0  0  0  0  0  0  0
   47.6401   52.5171   17.1756 C   0  0  0  0  0  0  0  0  0  0  0  0
   47.1631   53.6099   16.3371 C   0  0  0  0  0  0  0  0  0  0  0  0
   47.6237   54.7960   16.8669 C   0  0  0  0  0  0  0  0  0  0  0  0
   46.2122   53.6587   15.3969 C   0  0  0  0  0  0  0  0  0  0  0  0
   45.8645   54.8179   14.8948 C   0  0  0  0  0  0  0  0  0  0  0  0
   46.3913   55.9711   15.3897 C   0  0  0  0  0  0  0  0  0  0  0  0
   47.3226   55.9500   16.3510 C   0  0  0  0  0  0  0  0  0  0  0  0
   46.1627   57.1425   14.9274 N   0  0  0  0  0  0  0  0  0  0  0  0
   44.2126   56.9196   13.9663 O   0  0  0  0  0  0  0  0  0  0  0  0
   45.1375   57.5885   14.3768 C   0  0  0  0  0  0  0  0  0  0  0  0
   46.9039   57.7838   15.0201 H   0  0  0  0  0  0  0  0  0  0  0  0
   45.0524   59.1226   14.3124 C   0  0  0  0  0  0  0  0  0  0  0  0
   44.2365   59.8322   15.4205 C   0  0  0  0  0  0  0  0  0  0  0  0
   42.6996   58.5298   17.7327 C   0  0  0  0  0  0  0  0  0  0  0  0
   47.4242   57.9937   20.2831 C   0  0  0  0  0  0  0  0  0  0  0  0
   46.3185   58.9025   18.3021 C   0  0  0  0  0  0  0  0  0  0  0  0
   44.9745   57.7816   19.9121 C   0  0  0  0  0  0  0  0  0  0  0  0
   46.1342   59.5149   17.0805 N   0  0  0  0  0  0  0  0  0  0  0  0
   44.8355   59.3970   16.7671 C   0  0  0  0  0  0  0  0  0  0  0  0
   44.1276   58.7861   17.7108 N   0  0  0  0  0  0  0  0  0  0  0  0
   47.4594   58.6100   19.0223 C   0  0  0  0  0  0  0  0  0  0  0  0
   45.0627   58.3708   18.6733 C   0  0  0  0  0  0  0  0  0  0  0  0
   46.1697   57.5351   20.6812 C   0  0  0  0  0  0  0  0  0  0  0  0
   49.3025   55.4506   18.6544 C   0  0  0  0  0  0  0  0  0  0  0  0
   49.3264   55.1074   20.2047 C   0  0  0  0  0  0  0  0  0  0  0  0
   50.7179   54.7196   20.6996 C   0  0  0  0  0  0  0  0  0  0  0  0
   51.4596   52.4028   19.9221 C   0  0  0  0  0  0  0  0  0  0  0  0
   50.8870   53.2444   20.8614 N   0  0  0  0  0  0  0  0  0  0  0  0
   50.3881   52.4259   21.8376 C   0  0  0  0  0  0  0  0  0  0  0  0
   50.5029   51.1996   21.5502 N   0  0  0  0  0  0  0  0  0  0  0  0
   51.1288   51.1861   20.2742 C   0  0  0  0  0  0  0  0  0  0  0  0
   51.4196   49.9850   19.4935 C   0  0  0  0  0  0  0  0  0  0  0  0
   52.3587   49.1964   19.7839 O   0  0  0  0  0  0  0  0  0  0  0  0
   50.6751   49.8714   18.4039 N   0  0  0  0  0  0  0  0  0  0  0  0
   49.9543   50.5192   18.2304 H   0  0  0  0  0  0  0  0  0  0  0  0
   50.8425   49.1392   17.7675 H   0  0  0  0  0  0  0  0  0  0  0  0
   51.7268   55.4512   19.7019 C   0  0  0  0  0  0  0  0  0  0  0  0
   52.4709   56.6035   20.1189 O   0  0  0  0  0  0  0  0  0  0  0  0
   51.8619   57.3414   20.2782 H   0  0  0  0  0  0  0  0  0  0  0  0
 29 30  1  0  0  0
 29 33  2  0  0  0
 10 12  1  0  0  0
 11 12  2  0  0  0
 12 14  1  0  0  0
 30 31  1  0  0  0
 30 28  1  0  0  0
 31 32  2  0  0  0
 14 15  1  0  0  0
 32 33  1  0  0  0
 33 34  1  0  0  0
 15 21  1  0  0  0
 34 35  2  0  0  0
 34 36  1  0  0  0
 17 23  2  0  0  0
 17 25  1  0  0  0
 18 20  1  0  0  0
 18 24  2  0  0  0
 19 25  2  0  0  0
 20 21  2  0  0  0
 21 22  1  0  0  0
 28 39  1  0  0  0
 28 27  1  0  0  0
 16 22  1  0  0  0
 39 40  1  0  0  0
 18 23  1  0  0  0
 19 24  1  0  0  0
 22 24  1  0  0  0
 27 26  1  0  0  0
 26  1  1  0  0  0
  1  2  1  0  0  0
  1  5  1  0  0  0
  2  3  2  0  0  0
  3  4  1  0  0  0
  4  5  2  0  0  0
  4  6  1  0  0  0
  5  9  1  0  0  0
  6  7  2  0  0  0
  7  8  1  0  0  0
 10  8  1  0  0  0
  8  9  2  0  0  0
 10 13  1  0  0  0
 36 37  1  0  0  0
 36 38  1  0  0  0
 40 41  1  0  0  0
M  END
> <minimizedAffinity>
-7.92817

$$$$
1NDZ


 41 45  0  0  0  0  0  0  0  0999 V2000
   49.7935   52.6362   19.9891 N   0  0  0  0  0  0  0  0  0  0  0  0
   50.2694   53.1164   21.1628 C   0  0  0  0  0  0  0  0  0  0  0  0
   50.5521   52.0943   21.9535 C   0  0  0  0  0  0  0  0  0  0  0  0
   50.2481   50.9074   21.1639 C   0  0  0  0  0  0  0  0  0  0  0  0
   49.6890   51.3117   19.9707 C   0  0  0  0  0  0  0  0  0  0  0  0
   50.1713   49.6138   21.4975 C   0  0  0  0  0  0  0  0  0  0  0  0
   49.7186   48.7505   20.6219 C   0  0  0  0  0  0  0  0  0  0  0  0
   49.2388   49.1726   19.4202 C   0  0  0  0  0  0  0  0  0  0  0  0
   49.2775   50.4653   19.0748 C   0  0  0  0  0  0  0  0  0  0  0  0
   48.8344   48.4056   18.4788 N   0  0  0  0  0  0  0  0  0  0  0  0
   46.7151   48.1370   18.9398 O   0  0  0  0  0  0  0  0  0  0  0  0
   47.6782   48.0254   18.2109 C   0  0  0  0  0  0  0  0  0  0  0  0
   49.5386   48.0669   17.8798 H   0  0  0  0  0  0  0  0  0  0  0  0
   47.4973   47.4499   16.7963 C   0  0  0  0  0  0  0  0  0  0  0  0
   46.5285   48.1976   15.8478 C   0  0  0  0  0  0  0  0  0  0  0  0
   45.8035   48.1794   12.8681 C   0  0  0  0  0  0  0  0  0  0  0  0
   43.5083   43.3641   13.6795 C   0  0  0  0  0  0  0  0  0  0  0  0
   44.6103   45.2568   14.7639 C   0  0  0  0  0  0  0  0  0  0  0  0
   44.2796   45.3592   12.4113 C   0  0  0  0  0  0  0  0  0  0  0  0
   45.1852   46.0433   15.7398 N   0  0  0  0  0  0  0  0  0  0  0  0
   45.6868   47.1290   15.1330 C   0  0  0  0  0  0  0  0  0  0  0  0
   45.4524   47.1471   13.8255 N   0  0  0  0  0  0  0  0  0  0  0  0
   44.0789   43.9833   14.8028 C   0  0  0  0  0  0  0  0  0  0  0  0
   44.8428   45.9153   13.5352 C   0  0  0  0  0  0  0  0  0  0  0  0
   43.6741   44.0516   12.4785 C   0  0  0  0  0  0  0  0  0  0  0  0
   49.4100   53.5243   18.7587 C   0  0  0  0  0  0  0  0  0  0  0  0
   48.2239   54.5212   19.1066 C   0  0  0  0  0  0  0  0  0  0  0  0
   48.6033   55.9845   18.8908 C   0  0  0  0  0  0  0  0  0  0  0  0
   46.8962   57.6753   18.0255 C   0  0  0  0  0  0  0  0  0  0  0  0
   47.7958   56.6424   17.8202 N   0  0  0  0  0  0  0  0  0  0  0  0
   47.6481   56.2766   16.5102 C   0  0  0  0  0  0  0  0  0  0  0  0
   46.7048   56.8931   15.9361 N   0  0  0  0  0  0  0  0  0  0  0  0
   46.1682   57.7448   16.9396 C   0  0  0  0  0  0  0  0  0  0  0  0
   45.0100   58.6197   16.7679 C   0  0  0  0  0  0  0  0  0  0  0  0
   44.1465   58.7892   17.6701 O   0  0  0  0  0  0  0  0  0  0  0  0
   44.9055   59.1227   15.5471 N   0  0  0  0  0  0  0  0  0  0  0  0
   45.6136   58.9560   14.8837 H   0  0  0  0  0  0  0  0  0  0  0  0
   44.1198   59.6633   15.3030 H   0  0  0  0  0  0  0  0  0  0  0  0
   48.5395   56.6433   20.3435 C   0  0  0  0  0  0  0  0  0  0  0  0
   49.4174   56.2083   21.3901 O   0  0  0  0  0  0  0  0  0  0  0  0
   49.2018   55.2947   21.6342 H   0  0  0  0  0  0  0  0  0  0  0  0
 29 30  1  0  0  0
 29 33  2  0  0  0
 10 12  1  0  0  0
 11 12  2  0  0  0
 12 14  1  0  0  0
 30 31  1  0  0  0
 30 28  1  0  0  0
 31 32  2  0  0  0
 14 15  1  0  0  0
 32 33  1  0  0  0
 33 34  1  0  0  0
 15 21  1  0  0  0
 34 35  2  0  0  0
 34 36  1  0  0  0
 17 23  2  0  0  0
 17 25  1  0  0  0
 18 20  1  0  0  0
 18 24  2  0  0  0
 19 25  2  0  0  0
 20 21  2  0  0  0
 21 22  1  0  0  0
 28 39  1  0  0  0
 28 27  1  0  0  0
 16 22  1  0  0  0
 39 40  1  0  0  0
 18 23  1  0  0  0
 19 24  1  0  0  0
 22 24  1  0  0  0
 27 26  1  0  0  0
 26  1  1  0  0  0
  1  2  1  0  0  0
  1  5  1  0  0  0
  2  3  2  0  0  0
  3  4  1  0  0  0
  4  5  2  0  0  0
  4  6  1  0  0  0
  5  9  1  0  0  0
  6  7  2  0  0  0
  7  8  1  0  0  0
 10  8  1  0  0  0
  8  9  2  0  0  0
 10 13  1  0  0  0
 36 37  1  0  0  0
 36 38  1  0  0  0
 40 41  1  0  0  0
M  END
> <minimizedAffinity>
-7.30883

$$$$
1NDZ


 41 45  0  0  0  0  0  0  0  0999 V2000
   50.4860   51.7736   19.5462 N   0  0  0  0  0  0  0  0  0  0  0  0
   51.0283   51.4012   20.7303 C   0  0  0  0  0  0  0  0  0  0  0  0
   50.8959   52.3997   21.5878 C   0  0  0  0  0  0  0  0  0  0  0  0
   50.1828   53.4383   20.8547 C   0  0  0  0  0  0  0  0  0  0  0  0
   50.0327   53.0225   19.5492 C   0  0  0  0  0  0  0  0  0  0  0  0
   49.9295   54.7189   21.1486 C   0  0  0  0  0  0  0  0  0  0  0  0
   49.3971   55.4941   20.2361 C   0  0  0  0  0  0  0  0  0  0  0  0
   49.1927   55.0332   18.9719 C   0  0  0  0  0  0  0  0  0  0  0  0
   49.4657   53.7641   18.6453 C   0  0  0  0  0  0  0  0  0  0  0  0
   48.6248   55.6904   18.0319 N   0  0  0  0  0  0  0  0  0  0  0  0
   47.4736   54.1556   16.9851 O   0  0  0  0  0  0  0  0  0  0  0  0
   47.7745   55.3102   17.2039 C   0  0  0  0  0  0  0  0  0  0  0  0
   48.8995   56.6324   17.9512 H   0  0  0  0  0  0  0  0  0  0  0  0
   47.0170   56.4409   16.4881 C   0  0  0  0  0  0  0  0  0  0  0  0
   47.0682   57.8463   17.1358 C   0  0  0  0  0  0  0  0  0  0  0  0
   45.1376   58.3869   14.8152 C   0  0  0  0  0  0  0  0  0  0  0  0
   41.3170   59.3432   18.5034 C   0  0  0  0  0  0  0  0  0  0  0  0
   43.6864   58.8466   18.1682 C   0  0  0  0  0  0  0  0  0  0  0  0
   42.3122   59.0722   16.2407 C   0  0  0  0  0  0  0  0  0  0  0  0
   45.0061   58.5546   18.4411 N   0  0  0  0  0  0  0  0  0  0  0  0
   45.6165   58.3326   17.2676 C   0  0  0  0  0  0  0  0  0  0  0  0
   44.8102   58.4962   16.2246 N   0  0  0  0  0  0  0  0  0  0  0  0
   42.5922   59.0178   18.9923 C   0  0  0  0  0  0  0  0  0  0  0  0
   43.5370   58.7371   16.7671 C   0  0  0  0  0  0  0  0  0  0  0  0
   41.1899   59.3070   17.1159 C   0  0  0  0  0  0  0  0  0  0  0  0
   50.3784   50.8459   18.2903 C   0  0  0  0  0  0  0  0  0  0  0  0
   49.8723   49.3922   18.6810 C   0  0  0  0  0  0  0  0  0  0  0  0
   48.7122   49.4206   19.6735 C   0  0  0  0  0  0  0  0  0  0  0  0
   46.4109   48.3295   19.4854 C   0  0  0  0  0  0  0  0  0  0  0  0
   47.3858   49.1980   19.0236 N   0  0  0  0  0  0  0  0  0  0  0  0
   46.9395   49.6455   17.8102 C   0  0  0  0  0  0  0  0  0  0  0  0
   45.8700   49.0774   17.4453 N   0  0  0  0  0  0  0  0  0  0  0  0
   45.5682   48.1694   18.4964 C   0  0  0  0  0  0  0  0  0  0  0  0
   44.4440   47.2352   18.5030 C   0  0  0  0  0  0  0  0  0  0  0  0
   43.7934   46.9473   17.4627 O   0  0  0  0  0  0  0  0  0  0  0  0
   44.1162   46.8133   19.7150 N   0  0  0  0  0  0  0  0  0  0  0  0
   44.6640   47.0718   20.4911 H   0  0  0  0  0  0  0  0  0  0  0  0
   43.3247   46.2413   19.8397 H   0  0  0  0  0  0  0  0  0  0  0  0
   49.1291   48.3925   20.8213 C   0  0  0  0  0  0  0  0  0  0  0  0
   50.4939   47.9861   20.9876 O   0  0  0  0  0  0  0  0  0  0  0  0
   50.7727   47.4665   20.2175 H   0  0  0  0  0  0  0  0  0  0  0  0
 29 30  1  0  0  0
 29 33  2  0  0  0
 10 12  1  0  0  0
 11 12  2  0  0  0
 12 14  1  0  0  0
 30 31  1  0  0  0
 30 28  1  0  0  0
 31 32  2  0  0  0
 14 15  1  0  0  0
 32 33  1  0  0  0
 33 34  1  0  0  0
 15 21  1  0  0  0
 34 35  2  0  0  0
 34 36  1  0  0  0
 17 23  2  0  0  0
 17 25  1  0  0  0
 18 20  1  0  0  0
 18 24  2  0  0  0
 19 25  2  0  0  0
 20 21  2  0  0  0
 21 22  1  0  0  0
 28 39  1  0  0  0
 28 27  1  0  0  0
 16 22  1  0  0  0
 39 40  1  0  0  0
 18 23  1  0  0  0
 19 24  1  0  0  0
 22 24  1  0  0  0
 27 26  1  0  0  0
 26  1  1  0  0  0
  1  2  1  0  0  0
  1  5  1  0  0  0
  2  3  2  0  0  0
  3  4  1  0  0  0
  4  5  2  0  0  0
  4  6  1  0  0  0
  5  9  1  0  0  0
  6  7  2  0  0  0
  7  8  1  0  0  0
 10  8  1  0  0  0
  8  9  2  0  0  0
 10 13  1  0  0  0
 36 37  1  0  0  0
 36 38  1  0  0  0
 40 41  1  0  0  0
M  END
> <minimizedAffinity>
-7.30392

$$$$
